
---------- Begin Simulation Statistics ----------
simSeconds                                   0.003834                       # Number of seconds simulated (Second)
simTicks                                   3833919500                       # Number of ticks simulated (Tick)
finalTick                                  3833919500                       # Number of ticks from beginning of simulation (restored from checkpoints and never reset) (Tick)
simFreq                                  1000000000000                       # The number of ticks per simulated second ((Tick/Second))
hostSeconds                                    148.65                       # Real time elapsed on the host (Second)
hostTickRate                                 25790722                       # The number of ticks simulated per host second (ticks/s) ((Tick/Second))
hostMemory                                     690828                       # Number of bytes of host memory used (Byte)
simInsts                                     19116571                       # Number of instructions simulated (Count)
simOps                                       24958805                       # Number of ops (including micro ops) simulated (Count)
hostInstRate                                   128597                       # Simulator instruction rate (inst/s) ((Count/Second))
hostOpRate                                     167897                       # Simulator op (including micro ops) rate (op/s) ((Count/Second))
system.clk_domain.clock                          1000                       # Clock period in ticks (Tick)
system.cpu.numCycles                          7667840                       # Number of cpu cycles simulated (Cycle)
system.cpu.cpi                               0.401103                       # CPI: cycles per instruction (core level) ((Cycle/Count))
system.cpu.ipc                               2.493128                       # IPC: instructions per cycle (core level) ((Count/Cycle))
system.cpu.numWorkItemsStarted                      0                       # Number of work items this cpu started (Count)
system.cpu.numWorkItemsCompleted                    0                       # Number of work items this cpu completed (Count)
system.cpu.instsAdded                        25416496                       # Number of instructions added to the IQ (excludes non-spec) (Count)
system.cpu.nonSpecInstsAdded                       86                       # Number of non-speculative instructions added to the IQ (Count)
system.cpu.instsIssued                       25286109                       # Number of instructions issued (Count)
system.cpu.squashedInstsIssued                   9665                       # Number of squashed instructions issued (Count)
system.cpu.squashedInstsExamined               457776                       # Number of squashed instructions iterated over during squash; mainly for profiling (Count)
system.cpu.squashedOperandsExamined            889492                       # Number of squashed operands that are examined and possibly removed from graph (Count)
system.cpu.squashedNonSpecRemoved                  47                       # Number of squashed non-spec instructions that were removed (Count)
system.cpu.numIssuedDist::samples             7591713                       # Number of insts issued each cycle (Count)
system.cpu.numIssuedDist::mean               3.330751                       # Number of insts issued each cycle (Count)
system.cpu.numIssuedDist::stdev              2.641498                       # Number of insts issued each cycle (Count)
system.cpu.numIssuedDist::underflows                0      0.00%      0.00% # Number of insts issued each cycle (Count)
system.cpu.numIssuedDist::0                   1536943     20.25%     20.25% # Number of insts issued each cycle (Count)
system.cpu.numIssuedDist::1                    953751     12.56%     32.81% # Number of insts issued each cycle (Count)
system.cpu.numIssuedDist::2                   1047865     13.80%     46.61% # Number of insts issued each cycle (Count)
system.cpu.numIssuedDist::3                    633165      8.34%     54.95% # Number of insts issued each cycle (Count)
system.cpu.numIssuedDist::4                    652180      8.59%     63.54% # Number of insts issued each cycle (Count)
system.cpu.numIssuedDist::5                    365714      4.82%     68.36% # Number of insts issued each cycle (Count)
system.cpu.numIssuedDist::6                   1395626     18.38%     86.74% # Number of insts issued each cycle (Count)
system.cpu.numIssuedDist::7                    525665      6.92%     93.67% # Number of insts issued each cycle (Count)
system.cpu.numIssuedDist::8                    480804      6.33%    100.00% # Number of insts issued each cycle (Count)
system.cpu.numIssuedDist::overflows                 0      0.00%    100.00% # Number of insts issued each cycle (Count)
system.cpu.numIssuedDist::min_value                 0                       # Number of insts issued each cycle (Count)
system.cpu.numIssuedDist::max_value                 8                       # Number of insts issued each cycle (Count)
system.cpu.numIssuedDist::total               7591713                       # Number of insts issued each cycle (Count)
system.cpu.statFuBusy::No_OpClass                   0      0.00%      0.00% # attempts to use FU when none available (Count)
system.cpu.statFuBusy::IntAlu                    5292      1.17%      1.17% # attempts to use FU when none available (Count)
system.cpu.statFuBusy::IntMult                     43      0.01%      1.18% # attempts to use FU when none available (Count)
system.cpu.statFuBusy::IntDiv                       1      0.00%      1.18% # attempts to use FU when none available (Count)
system.cpu.statFuBusy::FloatAdd                     0      0.00%      1.18% # attempts to use FU when none available (Count)
system.cpu.statFuBusy::FloatCmp                     0      0.00%      1.18% # attempts to use FU when none available (Count)
system.cpu.statFuBusy::FloatCvt                     0      0.00%      1.18% # attempts to use FU when none available (Count)
system.cpu.statFuBusy::FloatMult                 1184      0.26%      1.44% # attempts to use FU when none available (Count)
system.cpu.statFuBusy::FloatMultAcc              1834      0.40%      1.84% # attempts to use FU when none available (Count)
system.cpu.statFuBusy::FloatDiv                     0      0.00%      1.84% # attempts to use FU when none available (Count)
system.cpu.statFuBusy::FloatMisc                 4254      0.94%      2.78% # attempts to use FU when none available (Count)
system.cpu.statFuBusy::FloatSqrt                    0      0.00%      2.78% # attempts to use FU when none available (Count)
system.cpu.statFuBusy::SimdAdd                      0      0.00%      2.78% # attempts to use FU when none available (Count)
system.cpu.statFuBusy::SimdAddAcc                   0      0.00%      2.78% # attempts to use FU when none available (Count)
system.cpu.statFuBusy::SimdAlu                      0      0.00%      2.78% # attempts to use FU when none available (Count)
system.cpu.statFuBusy::SimdCmp                      0      0.00%      2.78% # attempts to use FU when none available (Count)
system.cpu.statFuBusy::SimdCvt                      0      0.00%      2.78% # attempts to use FU when none available (Count)
system.cpu.statFuBusy::SimdMisc                    58      0.01%      2.79% # attempts to use FU when none available (Count)
system.cpu.statFuBusy::SimdMult                     0      0.00%      2.79% # attempts to use FU when none available (Count)
system.cpu.statFuBusy::SimdMultAcc                  0      0.00%      2.79% # attempts to use FU when none available (Count)
system.cpu.statFuBusy::SimdMatMultAcc               0      0.00%      2.79% # attempts to use FU when none available (Count)
system.cpu.statFuBusy::SimdShift                    0      0.00%      2.79% # attempts to use FU when none available (Count)
system.cpu.statFuBusy::SimdShiftAcc                 0      0.00%      2.79% # attempts to use FU when none available (Count)
system.cpu.statFuBusy::SimdDiv                      0      0.00%      2.79% # attempts to use FU when none available (Count)
system.cpu.statFuBusy::SimdSqrt                     0      0.00%      2.79% # attempts to use FU when none available (Count)
system.cpu.statFuBusy::SimdFloatAdd                 5      0.00%      2.79% # attempts to use FU when none available (Count)
system.cpu.statFuBusy::SimdFloatAlu                 0      0.00%      2.79% # attempts to use FU when none available (Count)
system.cpu.statFuBusy::SimdFloatCmp                 0      0.00%      2.79% # attempts to use FU when none available (Count)
system.cpu.statFuBusy::SimdFloatCvt                 0      0.00%      2.79% # attempts to use FU when none available (Count)
system.cpu.statFuBusy::SimdFloatDiv                 0      0.00%      2.79% # attempts to use FU when none available (Count)
system.cpu.statFuBusy::SimdFloatMisc                0      0.00%      2.79% # attempts to use FU when none available (Count)
system.cpu.statFuBusy::SimdFloatMult             1739      0.38%      3.18% # attempts to use FU when none available (Count)
system.cpu.statFuBusy::SimdFloatMultAcc          1747      0.39%      3.56% # attempts to use FU when none available (Count)
system.cpu.statFuBusy::SimdFloatMatMultAcc            0      0.00%      3.56% # attempts to use FU when none available (Count)
system.cpu.statFuBusy::SimdFloatSqrt                0      0.00%      3.56% # attempts to use FU when none available (Count)
system.cpu.statFuBusy::SimdReduceAdd                0      0.00%      3.56% # attempts to use FU when none available (Count)
system.cpu.statFuBusy::SimdReduceAlu                0      0.00%      3.56% # attempts to use FU when none available (Count)
system.cpu.statFuBusy::SimdReduceCmp                0      0.00%      3.56% # attempts to use FU when none available (Count)
system.cpu.statFuBusy::SimdFloatReduceAdd            0      0.00%      3.56% # attempts to use FU when none available (Count)
system.cpu.statFuBusy::SimdFloatReduceCmp            0      0.00%      3.56% # attempts to use FU when none available (Count)
system.cpu.statFuBusy::SimdAes                      0      0.00%      3.56% # attempts to use FU when none available (Count)
system.cpu.statFuBusy::SimdAesMix                   0      0.00%      3.56% # attempts to use FU when none available (Count)
system.cpu.statFuBusy::SimdSha1Hash                 0      0.00%      3.56% # attempts to use FU when none available (Count)
system.cpu.statFuBusy::SimdSha1Hash2                0      0.00%      3.56% # attempts to use FU when none available (Count)
system.cpu.statFuBusy::SimdSha256Hash               0      0.00%      3.56% # attempts to use FU when none available (Count)
system.cpu.statFuBusy::SimdSha256Hash2              0      0.00%      3.56% # attempts to use FU when none available (Count)
system.cpu.statFuBusy::SimdShaSigma2                0      0.00%      3.56% # attempts to use FU when none available (Count)
system.cpu.statFuBusy::SimdShaSigma3                0      0.00%      3.56% # attempts to use FU when none available (Count)
system.cpu.statFuBusy::SimdPredAlu                  0      0.00%      3.56% # attempts to use FU when none available (Count)
system.cpu.statFuBusy::Matrix                       0      0.00%      3.56% # attempts to use FU when none available (Count)
system.cpu.statFuBusy::MatrixMov                    0      0.00%      3.56% # attempts to use FU when none available (Count)
system.cpu.statFuBusy::MatrixOP                     0      0.00%      3.56% # attempts to use FU when none available (Count)
system.cpu.statFuBusy::MemRead                 411773     90.81%     94.38% # attempts to use FU when none available (Count)
system.cpu.statFuBusy::MemWrite                 25504      5.62%    100.00% # attempts to use FU when none available (Count)
system.cpu.statFuBusy::FloatMemRead                 0      0.00%    100.00% # attempts to use FU when none available (Count)
system.cpu.statFuBusy::FloatMemWrite                0      0.00%    100.00% # attempts to use FU when none available (Count)
system.cpu.statFuBusy::IprAccess                    0      0.00%    100.00% # attempts to use FU when none available (Count)
system.cpu.statFuBusy::InstPrefetch                 0      0.00%    100.00% # attempts to use FU when none available (Count)
system.cpu.statFuBusy::VectorUnitStrideLoad            0      0.00%    100.00% # attempts to use FU when none available (Count)
system.cpu.statFuBusy::VectorUnitStrideStore            0      0.00%    100.00% # attempts to use FU when none available (Count)
system.cpu.statFuBusy::VectorUnitStrideMaskLoad            0      0.00%    100.00% # attempts to use FU when none available (Count)
system.cpu.statFuBusy::VectorUnitStrideMaskStore            0      0.00%    100.00% # attempts to use FU when none available (Count)
system.cpu.statFuBusy::VectorStridedLoad            0      0.00%    100.00% # attempts to use FU when none available (Count)
system.cpu.statFuBusy::VectorStridedStore            0      0.00%    100.00% # attempts to use FU when none available (Count)
system.cpu.statFuBusy::VectorIndexedLoad            0      0.00%    100.00% # attempts to use FU when none available (Count)
system.cpu.statFuBusy::VectorIndexedStore            0      0.00%    100.00% # attempts to use FU when none available (Count)
system.cpu.statFuBusy::VectorUnitStrideFaultOnlyFirstLoad            0      0.00%    100.00% # attempts to use FU when none available (Count)
system.cpu.statFuBusy::VectorWholeRegisterLoad            0      0.00%    100.00% # attempts to use FU when none available (Count)
system.cpu.statFuBusy::VectorWholeRegisterStore            0      0.00%    100.00% # attempts to use FU when none available (Count)
system.cpu.statFuBusy::VectorIntegerArith            0      0.00%    100.00% # attempts to use FU when none available (Count)
system.cpu.statFuBusy::VectorFloatArith             0      0.00%    100.00% # attempts to use FU when none available (Count)
system.cpu.statFuBusy::VectorFloatConvert            0      0.00%    100.00% # attempts to use FU when none available (Count)
system.cpu.statFuBusy::VectorIntegerReduce            0      0.00%    100.00% # attempts to use FU when none available (Count)
system.cpu.statFuBusy::VectorFloatReduce            0      0.00%    100.00% # attempts to use FU when none available (Count)
system.cpu.statFuBusy::VectorMisc                   0      0.00%    100.00% # attempts to use FU when none available (Count)
system.cpu.statFuBusy::VectorIntegerExtension            0      0.00%    100.00% # attempts to use FU when none available (Count)
system.cpu.statFuBusy::VectorConfig                 0      0.00%    100.00% # attempts to use FU when none available (Count)
system.cpu.statIssuedInstType_0::No_OpClass           61      0.00%      0.00% # Number of instructions issued per FU type, per thread (Count)
system.cpu.statIssuedInstType_0::IntAlu      12457975     49.27%     49.27% # Number of instructions issued per FU type, per thread (Count)
system.cpu.statIssuedInstType_0::IntMult       124590      0.49%     49.76% # Number of instructions issued per FU type, per thread (Count)
system.cpu.statIssuedInstType_0::IntDiv            28      0.00%     49.76% # Number of instructions issued per FU type, per thread (Count)
system.cpu.statIssuedInstType_0::FloatAdd        11767      0.05%     49.81% # Number of instructions issued per FU type, per thread (Count)
system.cpu.statIssuedInstType_0::FloatCmp       234745      0.93%     50.74% # Number of instructions issued per FU type, per thread (Count)
system.cpu.statIssuedInstType_0::FloatCvt       119116      0.47%     51.21% # Number of instructions issued per FU type, per thread (Count)
system.cpu.statIssuedInstType_0::FloatMult         7555      0.03%     51.24% # Number of instructions issued per FU type, per thread (Count)
system.cpu.statIssuedInstType_0::FloatMultAcc       390762      1.55%     52.78% # Number of instructions issued per FU type, per thread (Count)
system.cpu.statIssuedInstType_0::FloatDiv         4478      0.02%     52.80% # Number of instructions issued per FU type, per thread (Count)
system.cpu.statIssuedInstType_0::FloatMisc       116454      0.46%     53.26% # Number of instructions issued per FU type, per thread (Count)
system.cpu.statIssuedInstType_0::FloatSqrt            0      0.00%     53.26% # Number of instructions issued per FU type, per thread (Count)
system.cpu.statIssuedInstType_0::SimdAdd            3      0.00%     53.26% # Number of instructions issued per FU type, per thread (Count)
system.cpu.statIssuedInstType_0::SimdAddAcc            0      0.00%     53.26% # Number of instructions issued per FU type, per thread (Count)
system.cpu.statIssuedInstType_0::SimdAlu           91      0.00%     53.26% # Number of instructions issued per FU type, per thread (Count)
system.cpu.statIssuedInstType_0::SimdCmp          268      0.00%     53.26% # Number of instructions issued per FU type, per thread (Count)
system.cpu.statIssuedInstType_0::SimdCvt            5      0.00%     53.26% # Number of instructions issued per FU type, per thread (Count)
system.cpu.statIssuedInstType_0::SimdMisc       115435      0.46%     53.72% # Number of instructions issued per FU type, per thread (Count)
system.cpu.statIssuedInstType_0::SimdMult            0      0.00%     53.72% # Number of instructions issued per FU type, per thread (Count)
system.cpu.statIssuedInstType_0::SimdMultAcc            0      0.00%     53.72% # Number of instructions issued per FU type, per thread (Count)
system.cpu.statIssuedInstType_0::SimdMatMultAcc            0      0.00%     53.72% # Number of instructions issued per FU type, per thread (Count)
system.cpu.statIssuedInstType_0::SimdShift           56      0.00%     53.72% # Number of instructions issued per FU type, per thread (Count)
system.cpu.statIssuedInstType_0::SimdShiftAcc            0      0.00%     53.72% # Number of instructions issued per FU type, per thread (Count)
system.cpu.statIssuedInstType_0::SimdDiv            0      0.00%     53.72% # Number of instructions issued per FU type, per thread (Count)
system.cpu.statIssuedInstType_0::SimdSqrt            0      0.00%     53.72% # Number of instructions issued per FU type, per thread (Count)
system.cpu.statIssuedInstType_0::SimdFloatAdd        55200      0.22%     53.94% # Number of instructions issued per FU type, per thread (Count)
system.cpu.statIssuedInstType_0::SimdFloatAlu           24      0.00%     53.94% # Number of instructions issued per FU type, per thread (Count)
system.cpu.statIssuedInstType_0::SimdFloatCmp            0      0.00%     53.94% # Number of instructions issued per FU type, per thread (Count)
system.cpu.statIssuedInstType_0::SimdFloatCvt            0      0.00%     53.94% # Number of instructions issued per FU type, per thread (Count)
system.cpu.statIssuedInstType_0::SimdFloatDiv            0      0.00%     53.94% # Number of instructions issued per FU type, per thread (Count)
system.cpu.statIssuedInstType_0::SimdFloatMisc            0      0.00%     53.94% # Number of instructions issued per FU type, per thread (Count)
system.cpu.statIssuedInstType_0::SimdFloatMult        25601      0.10%     54.04% # Number of instructions issued per FU type, per thread (Count)
system.cpu.statIssuedInstType_0::SimdFloatMultAcc      1765655      6.98%     61.02% # Number of instructions issued per FU type, per thread (Count)
system.cpu.statIssuedInstType_0::SimdFloatMatMultAcc            0      0.00%     61.02% # Number of instructions issued per FU type, per thread (Count)
system.cpu.statIssuedInstType_0::SimdFloatSqrt            0      0.00%     61.02% # Number of instructions issued per FU type, per thread (Count)
system.cpu.statIssuedInstType_0::SimdReduceAdd            0      0.00%     61.02% # Number of instructions issued per FU type, per thread (Count)
system.cpu.statIssuedInstType_0::SimdReduceAlu            0      0.00%     61.02% # Number of instructions issued per FU type, per thread (Count)
system.cpu.statIssuedInstType_0::SimdReduceCmp            0      0.00%     61.02% # Number of instructions issued per FU type, per thread (Count)
system.cpu.statIssuedInstType_0::SimdFloatReduceAdd            0      0.00%     61.02% # Number of instructions issued per FU type, per thread (Count)
system.cpu.statIssuedInstType_0::SimdFloatReduceCmp            0      0.00%     61.02% # Number of instructions issued per FU type, per thread (Count)
system.cpu.statIssuedInstType_0::SimdAes            0      0.00%     61.02% # Number of instructions issued per FU type, per thread (Count)
system.cpu.statIssuedInstType_0::SimdAesMix            0      0.00%     61.02% # Number of instructions issued per FU type, per thread (Count)
system.cpu.statIssuedInstType_0::SimdSha1Hash            0      0.00%     61.02% # Number of instructions issued per FU type, per thread (Count)
system.cpu.statIssuedInstType_0::SimdSha1Hash2            0      0.00%     61.02% # Number of instructions issued per FU type, per thread (Count)
system.cpu.statIssuedInstType_0::SimdSha256Hash            0      0.00%     61.02% # Number of instructions issued per FU type, per thread (Count)
system.cpu.statIssuedInstType_0::SimdSha256Hash2            0      0.00%     61.02% # Number of instructions issued per FU type, per thread (Count)
system.cpu.statIssuedInstType_0::SimdShaSigma2            0      0.00%     61.02% # Number of instructions issued per FU type, per thread (Count)
system.cpu.statIssuedInstType_0::SimdShaSigma3            0      0.00%     61.02% # Number of instructions issued per FU type, per thread (Count)
system.cpu.statIssuedInstType_0::SimdPredAlu            0      0.00%     61.02% # Number of instructions issued per FU type, per thread (Count)
system.cpu.statIssuedInstType_0::Matrix             0      0.00%     61.02% # Number of instructions issued per FU type, per thread (Count)
system.cpu.statIssuedInstType_0::MatrixMov            0      0.00%     61.02% # Number of instructions issued per FU type, per thread (Count)
system.cpu.statIssuedInstType_0::MatrixOP            0      0.00%     61.02% # Number of instructions issued per FU type, per thread (Count)
system.cpu.statIssuedInstType_0::MemRead      5257426     20.79%     81.81% # Number of instructions issued per FU type, per thread (Count)
system.cpu.statIssuedInstType_0::MemWrite      4598814     18.19%    100.00% # Number of instructions issued per FU type, per thread (Count)
system.cpu.statIssuedInstType_0::FloatMemRead            0      0.00%    100.00% # Number of instructions issued per FU type, per thread (Count)
system.cpu.statIssuedInstType_0::FloatMemWrite            0      0.00%    100.00% # Number of instructions issued per FU type, per thread (Count)
system.cpu.statIssuedInstType_0::IprAccess            0      0.00%    100.00% # Number of instructions issued per FU type, per thread (Count)
system.cpu.statIssuedInstType_0::InstPrefetch            0      0.00%    100.00% # Number of instructions issued per FU type, per thread (Count)
system.cpu.statIssuedInstType_0::VectorUnitStrideLoad            0      0.00%    100.00% # Number of instructions issued per FU type, per thread (Count)
system.cpu.statIssuedInstType_0::VectorUnitStrideStore            0      0.00%    100.00% # Number of instructions issued per FU type, per thread (Count)
system.cpu.statIssuedInstType_0::VectorUnitStrideMaskLoad            0      0.00%    100.00% # Number of instructions issued per FU type, per thread (Count)
system.cpu.statIssuedInstType_0::VectorUnitStrideMaskStore            0      0.00%    100.00% # Number of instructions issued per FU type, per thread (Count)
system.cpu.statIssuedInstType_0::VectorStridedLoad            0      0.00%    100.00% # Number of instructions issued per FU type, per thread (Count)
system.cpu.statIssuedInstType_0::VectorStridedStore            0      0.00%    100.00% # Number of instructions issued per FU type, per thread (Count)
system.cpu.statIssuedInstType_0::VectorIndexedLoad            0      0.00%    100.00% # Number of instructions issued per FU type, per thread (Count)
system.cpu.statIssuedInstType_0::VectorIndexedStore            0      0.00%    100.00% # Number of instructions issued per FU type, per thread (Count)
system.cpu.statIssuedInstType_0::VectorUnitStrideFaultOnlyFirstLoad            0      0.00%    100.00% # Number of instructions issued per FU type, per thread (Count)
system.cpu.statIssuedInstType_0::VectorWholeRegisterLoad            0      0.00%    100.00% # Number of instructions issued per FU type, per thread (Count)
system.cpu.statIssuedInstType_0::VectorWholeRegisterStore            0      0.00%    100.00% # Number of instructions issued per FU type, per thread (Count)
system.cpu.statIssuedInstType_0::VectorIntegerArith            0      0.00%    100.00% # Number of instructions issued per FU type, per thread (Count)
system.cpu.statIssuedInstType_0::VectorFloatArith            0      0.00%    100.00% # Number of instructions issued per FU type, per thread (Count)
system.cpu.statIssuedInstType_0::VectorFloatConvert            0      0.00%    100.00% # Number of instructions issued per FU type, per thread (Count)
system.cpu.statIssuedInstType_0::VectorIntegerReduce            0      0.00%    100.00% # Number of instructions issued per FU type, per thread (Count)
system.cpu.statIssuedInstType_0::VectorFloatReduce            0      0.00%    100.00% # Number of instructions issued per FU type, per thread (Count)
system.cpu.statIssuedInstType_0::VectorMisc            0      0.00%    100.00% # Number of instructions issued per FU type, per thread (Count)
system.cpu.statIssuedInstType_0::VectorIntegerExtension            0      0.00%    100.00% # Number of instructions issued per FU type, per thread (Count)
system.cpu.statIssuedInstType_0::VectorConfig            0      0.00%    100.00% # Number of instructions issued per FU type, per thread (Count)
system.cpu.statIssuedInstType_0::total       25286109                       # Number of instructions issued per FU type, per thread (Count)
system.cpu.issueRate                         3.297683                       # Inst issue rate ((Count/Cycle))
system.cpu.fuBusy                              453434                       # FU busy when requested (Count)
system.cpu.fuBusyRate                        0.017932                       # FU busy rate (busy events/executed inst) ((Count/Count))
system.cpu.intInstQueueReads                 33025312                       # Number of integer instruction queue reads (Count)
system.cpu.intInstQueueWrites                13033382                       # Number of integer instruction queue writes (Count)
system.cpu.intInstQueueWakeupAccesses        12671170                       # Number of integer instruction queue wakeup accesses (Count)
system.cpu.fpInstQueueReads                         0                       # Number of floating instruction queue reads (Count)
system.cpu.fpInstQueueWrites                        0                       # Number of floating instruction queue writes (Count)
system.cpu.fpInstQueueWakeupAccesses                0                       # Number of floating instruction queue wakeup accesses (Count)
system.cpu.vecInstQueueReads                 25601718                       # Number of vector instruction queue reads (Count)
system.cpu.vecInstQueueWrites                12841994                       # Number of vector instruction queue writes (Count)
system.cpu.vecInstQueueWakeupAccesses        12456868                       # Number of vector instruction queue wakeup accesses (Count)
system.cpu.intAluAccesses                    12719298                       # Number of integer alu accesses (Count)
system.cpu.fpAluAccesses                            0                       # Number of floating point alu accesses (Count)
system.cpu.vecAluAccesses                    13020184                       # Number of vector alu accesses (Count)
system.cpu.numSquashedInsts                     72894                       # Number of squashed instructions skipped in execute (Count)
system.cpu.numSwp                                   0                       # Number of swp insts executed (Count)
system.cpu.timesIdled                             871                       # Number of times that the entire CPU went into an idle state and unscheduled itself (Count)
system.cpu.idleCycles                           76127                       # Total number of cycles that the CPU has spent unscheduled due to idling (Cycle)
system.cpu.MemDepUnit__0.insertedLoads        5219932                       # Number of loads inserted to the mem dependence unit. (Count)
system.cpu.MemDepUnit__0.insertedStores       4666076                       # Number of stores inserted to the mem dependence unit. (Count)
system.cpu.MemDepUnit__0.conflictingLoads       178952                       # Number of conflicting loads. (Count)
system.cpu.MemDepUnit__0.conflictingStores        68154                       # Number of conflicting stores. (Count)
system.cpu.MemDepUnit__0.predictions          9885925                       # Number of MDP predictions. (Count)
system.cpu.MemDepUnit__0.hits                  247018                       # Number of hits :) (Count)
system.cpu.MemDepUnit__0.no_hits                    0                       # Number of no hits :( (Count)
system.cpu.MemDepUnit__0.LFSTReads            1444514                       # Number of LFST reads. (Count)
system.cpu.MemDepUnit__0.LFSTWrites            235093                       # Number of LFST writes. (Count)
system.cpu.MemDepUnit__0.matching_history            0                       # Number of times committing and issuing branch histories match (Count)
system.cpu.MemDepUnit__0.mismatching_history            0                       # Number of times committing and issuing branch histories mismatch (Count)
system.cpu.MemDepUnit__0.missing_entry              0                       # Number of times hashes and branch history match but entry is not found anyway (Count)
system.cpu.MemDepUnit__0.hash_match                 0                       # Number of times hashes match when branch history match (Count)
system.cpu.MemDepUnit__0.hash_mismatch              0                       # Number of times hashes mismatch when branch history match (Count)
system.cpu.MemDepUnit__0.null_entry                 0                       # Number of times the hash and branch history match but no entry is found anyway. (Count)
system.cpu.MemDepUnit__0.counter_is_zero            0                       # Number of times the hash and branch history match but the found entry has a counter value of zero. (Count)
system.cpu.MemDepUnit__0.store_pc_is_zero            0                       # Number of times the hash and branch history match but the stored store pc is zero. (Count)
system.cpu.MemDepUnit__0.hit_with_history            0                       # Number of times histories match and an entry is found. (Count)
system.cpu.MemDepUnit__0.PHASTMispredictions            0                       # mispreds (Count)
system.cpu.MemDepUnit__0.PHASTCorrectPredictions            0                       # correct preds (Count)
system.cpu.MemDepUnit__0.readsPath1                 0                       # Number of reads to path table 1. (Count)
system.cpu.MemDepUnit__0.readsPath2                 0                       # Number of reads to path table 2. (Count)
system.cpu.MemDepUnit__0.readsPath3                 0                       # Number of reads to path table 3. (Count)
system.cpu.MemDepUnit__0.readsPath4                 0                       # Number of reads to path table 4. (Count)
system.cpu.MemDepUnit__0.readsPath5                 0                       # Number of reads to path table 5. (Count)
system.cpu.MemDepUnit__0.readsPath6                 0                       # Number of reads to path table 6. (Count)
system.cpu.MemDepUnit__0.readsPath7                 0                       # Number of reads to path table 7. (Count)
system.cpu.MemDepUnit__0.readsPath8                 0                       # Number of reads to path table 8. (Count)
system.cpu.MemDepUnit__0.writesPath1                0                       # Number of writes to path table 1. (Count)
system.cpu.MemDepUnit__0.writesPath2                0                       # Number of writes to path table 2. (Count)
system.cpu.MemDepUnit__0.writesPath3                0                       # Number of writes to path table 3. (Count)
system.cpu.MemDepUnit__0.writesPath4                0                       # Number of writes to path table 4. (Count)
system.cpu.MemDepUnit__0.writesPath5                0                       # Number of writes to path table 5. (Count)
system.cpu.MemDepUnit__0.writesPath6                0                       # Number of writes to path table 6. (Count)
system.cpu.MemDepUnit__0.writesPath7                0                       # Number of writes to path table 7. (Count)
system.cpu.MemDepUnit__0.writesPath8                0                       # Number of writes to path table 8. (Count)
system.cpu.MemDepUnit__1.insertedLoads              0                       # Number of loads inserted to the mem dependence unit. (Count)
system.cpu.MemDepUnit__1.insertedStores             0                       # Number of stores inserted to the mem dependence unit. (Count)
system.cpu.MemDepUnit__1.conflictingLoads            0                       # Number of conflicting loads. (Count)
system.cpu.MemDepUnit__1.conflictingStores            0                       # Number of conflicting stores. (Count)
system.cpu.MemDepUnit__1.predictions                0                       # Number of MDP predictions. (Count)
system.cpu.MemDepUnit__1.hits                       0                       # Number of hits :) (Count)
system.cpu.MemDepUnit__1.no_hits                    0                       # Number of no hits :( (Count)
system.cpu.MemDepUnit__1.LFSTReads                  0                       # Number of LFST reads. (Count)
system.cpu.MemDepUnit__1.LFSTWrites                 0                       # Number of LFST writes. (Count)
system.cpu.MemDepUnit__1.matching_history            0                       # Number of times committing and issuing branch histories match (Count)
system.cpu.MemDepUnit__1.mismatching_history            0                       # Number of times committing and issuing branch histories mismatch (Count)
system.cpu.MemDepUnit__1.missing_entry              0                       # Number of times hashes and branch history match but entry is not found anyway (Count)
system.cpu.MemDepUnit__1.hash_match                 0                       # Number of times hashes match when branch history match (Count)
system.cpu.MemDepUnit__1.hash_mismatch              0                       # Number of times hashes mismatch when branch history match (Count)
system.cpu.MemDepUnit__1.null_entry                 0                       # Number of times the hash and branch history match but no entry is found anyway. (Count)
system.cpu.MemDepUnit__1.counter_is_zero            0                       # Number of times the hash and branch history match but the found entry has a counter value of zero. (Count)
system.cpu.MemDepUnit__1.store_pc_is_zero            0                       # Number of times the hash and branch history match but the stored store pc is zero. (Count)
system.cpu.MemDepUnit__1.hit_with_history            0                       # Number of times histories match and an entry is found. (Count)
system.cpu.MemDepUnit__1.PHASTMispredictions            0                       # mispreds (Count)
system.cpu.MemDepUnit__1.PHASTCorrectPredictions            0                       # correct preds (Count)
system.cpu.MemDepUnit__1.readsPath1                 0                       # Number of reads to path table 1. (Count)
system.cpu.MemDepUnit__1.readsPath2                 0                       # Number of reads to path table 2. (Count)
system.cpu.MemDepUnit__1.readsPath3                 0                       # Number of reads to path table 3. (Count)
system.cpu.MemDepUnit__1.readsPath4                 0                       # Number of reads to path table 4. (Count)
system.cpu.MemDepUnit__1.readsPath5                 0                       # Number of reads to path table 5. (Count)
system.cpu.MemDepUnit__1.readsPath6                 0                       # Number of reads to path table 6. (Count)
system.cpu.MemDepUnit__1.readsPath7                 0                       # Number of reads to path table 7. (Count)
system.cpu.MemDepUnit__1.readsPath8                 0                       # Number of reads to path table 8. (Count)
system.cpu.MemDepUnit__1.writesPath1                0                       # Number of writes to path table 1. (Count)
system.cpu.MemDepUnit__1.writesPath2                0                       # Number of writes to path table 2. (Count)
system.cpu.MemDepUnit__1.writesPath3                0                       # Number of writes to path table 3. (Count)
system.cpu.MemDepUnit__1.writesPath4                0                       # Number of writes to path table 4. (Count)
system.cpu.MemDepUnit__1.writesPath5                0                       # Number of writes to path table 5. (Count)
system.cpu.MemDepUnit__1.writesPath6                0                       # Number of writes to path table 6. (Count)
system.cpu.MemDepUnit__1.writesPath7                0                       # Number of writes to path table 7. (Count)
system.cpu.MemDepUnit__1.writesPath8                0                       # Number of writes to path table 8. (Count)
system.cpu.MemDepUnit__2.insertedLoads              0                       # Number of loads inserted to the mem dependence unit. (Count)
system.cpu.MemDepUnit__2.insertedStores             0                       # Number of stores inserted to the mem dependence unit. (Count)
system.cpu.MemDepUnit__2.conflictingLoads            0                       # Number of conflicting loads. (Count)
system.cpu.MemDepUnit__2.conflictingStores            0                       # Number of conflicting stores. (Count)
system.cpu.MemDepUnit__2.predictions                0                       # Number of MDP predictions. (Count)
system.cpu.MemDepUnit__2.hits                       0                       # Number of hits :) (Count)
system.cpu.MemDepUnit__2.no_hits                    0                       # Number of no hits :( (Count)
system.cpu.MemDepUnit__2.LFSTReads                  0                       # Number of LFST reads. (Count)
system.cpu.MemDepUnit__2.LFSTWrites                 0                       # Number of LFST writes. (Count)
system.cpu.MemDepUnit__2.matching_history            0                       # Number of times committing and issuing branch histories match (Count)
system.cpu.MemDepUnit__2.mismatching_history            0                       # Number of times committing and issuing branch histories mismatch (Count)
system.cpu.MemDepUnit__2.missing_entry              0                       # Number of times hashes and branch history match but entry is not found anyway (Count)
system.cpu.MemDepUnit__2.hash_match                 0                       # Number of times hashes match when branch history match (Count)
system.cpu.MemDepUnit__2.hash_mismatch              0                       # Number of times hashes mismatch when branch history match (Count)
system.cpu.MemDepUnit__2.null_entry                 0                       # Number of times the hash and branch history match but no entry is found anyway. (Count)
system.cpu.MemDepUnit__2.counter_is_zero            0                       # Number of times the hash and branch history match but the found entry has a counter value of zero. (Count)
system.cpu.MemDepUnit__2.store_pc_is_zero            0                       # Number of times the hash and branch history match but the stored store pc is zero. (Count)
system.cpu.MemDepUnit__2.hit_with_history            0                       # Number of times histories match and an entry is found. (Count)
system.cpu.MemDepUnit__2.PHASTMispredictions            0                       # mispreds (Count)
system.cpu.MemDepUnit__2.PHASTCorrectPredictions            0                       # correct preds (Count)
system.cpu.MemDepUnit__2.readsPath1                 0                       # Number of reads to path table 1. (Count)
system.cpu.MemDepUnit__2.readsPath2                 0                       # Number of reads to path table 2. (Count)
system.cpu.MemDepUnit__2.readsPath3                 0                       # Number of reads to path table 3. (Count)
system.cpu.MemDepUnit__2.readsPath4                 0                       # Number of reads to path table 4. (Count)
system.cpu.MemDepUnit__2.readsPath5                 0                       # Number of reads to path table 5. (Count)
system.cpu.MemDepUnit__2.readsPath6                 0                       # Number of reads to path table 6. (Count)
system.cpu.MemDepUnit__2.readsPath7                 0                       # Number of reads to path table 7. (Count)
system.cpu.MemDepUnit__2.readsPath8                 0                       # Number of reads to path table 8. (Count)
system.cpu.MemDepUnit__2.writesPath1                0                       # Number of writes to path table 1. (Count)
system.cpu.MemDepUnit__2.writesPath2                0                       # Number of writes to path table 2. (Count)
system.cpu.MemDepUnit__2.writesPath3                0                       # Number of writes to path table 3. (Count)
system.cpu.MemDepUnit__2.writesPath4                0                       # Number of writes to path table 4. (Count)
system.cpu.MemDepUnit__2.writesPath5                0                       # Number of writes to path table 5. (Count)
system.cpu.MemDepUnit__2.writesPath6                0                       # Number of writes to path table 6. (Count)
system.cpu.MemDepUnit__2.writesPath7                0                       # Number of writes to path table 7. (Count)
system.cpu.MemDepUnit__2.writesPath8                0                       # Number of writes to path table 8. (Count)
system.cpu.MemDepUnit__3.insertedLoads              0                       # Number of loads inserted to the mem dependence unit. (Count)
system.cpu.MemDepUnit__3.insertedStores             0                       # Number of stores inserted to the mem dependence unit. (Count)
system.cpu.MemDepUnit__3.conflictingLoads            0                       # Number of conflicting loads. (Count)
system.cpu.MemDepUnit__3.conflictingStores            0                       # Number of conflicting stores. (Count)
system.cpu.MemDepUnit__3.predictions                0                       # Number of MDP predictions. (Count)
system.cpu.MemDepUnit__3.hits                       0                       # Number of hits :) (Count)
system.cpu.MemDepUnit__3.no_hits                    0                       # Number of no hits :( (Count)
system.cpu.MemDepUnit__3.LFSTReads                  0                       # Number of LFST reads. (Count)
system.cpu.MemDepUnit__3.LFSTWrites                 0                       # Number of LFST writes. (Count)
system.cpu.MemDepUnit__3.matching_history            0                       # Number of times committing and issuing branch histories match (Count)
system.cpu.MemDepUnit__3.mismatching_history            0                       # Number of times committing and issuing branch histories mismatch (Count)
system.cpu.MemDepUnit__3.missing_entry              0                       # Number of times hashes and branch history match but entry is not found anyway (Count)
system.cpu.MemDepUnit__3.hash_match                 0                       # Number of times hashes match when branch history match (Count)
system.cpu.MemDepUnit__3.hash_mismatch              0                       # Number of times hashes mismatch when branch history match (Count)
system.cpu.MemDepUnit__3.null_entry                 0                       # Number of times the hash and branch history match but no entry is found anyway. (Count)
system.cpu.MemDepUnit__3.counter_is_zero            0                       # Number of times the hash and branch history match but the found entry has a counter value of zero. (Count)
system.cpu.MemDepUnit__3.store_pc_is_zero            0                       # Number of times the hash and branch history match but the stored store pc is zero. (Count)
system.cpu.MemDepUnit__3.hit_with_history            0                       # Number of times histories match and an entry is found. (Count)
system.cpu.MemDepUnit__3.PHASTMispredictions            0                       # mispreds (Count)
system.cpu.MemDepUnit__3.PHASTCorrectPredictions            0                       # correct preds (Count)
system.cpu.MemDepUnit__3.readsPath1                 0                       # Number of reads to path table 1. (Count)
system.cpu.MemDepUnit__3.readsPath2                 0                       # Number of reads to path table 2. (Count)
system.cpu.MemDepUnit__3.readsPath3                 0                       # Number of reads to path table 3. (Count)
system.cpu.MemDepUnit__3.readsPath4                 0                       # Number of reads to path table 4. (Count)
system.cpu.MemDepUnit__3.readsPath5                 0                       # Number of reads to path table 5. (Count)
system.cpu.MemDepUnit__3.readsPath6                 0                       # Number of reads to path table 6. (Count)
system.cpu.MemDepUnit__3.readsPath7                 0                       # Number of reads to path table 7. (Count)
system.cpu.MemDepUnit__3.readsPath8                 0                       # Number of reads to path table 8. (Count)
system.cpu.MemDepUnit__3.writesPath1                0                       # Number of writes to path table 1. (Count)
system.cpu.MemDepUnit__3.writesPath2                0                       # Number of writes to path table 2. (Count)
system.cpu.MemDepUnit__3.writesPath3                0                       # Number of writes to path table 3. (Count)
system.cpu.MemDepUnit__3.writesPath4                0                       # Number of writes to path table 4. (Count)
system.cpu.MemDepUnit__3.writesPath5                0                       # Number of writes to path table 5. (Count)
system.cpu.MemDepUnit__3.writesPath6                0                       # Number of writes to path table 6. (Count)
system.cpu.MemDepUnit__3.writesPath7                0                       # Number of writes to path table 7. (Count)
system.cpu.MemDepUnit__3.writesPath8                0                       # Number of writes to path table 8. (Count)
system.cpu.branchPred.lookups_0::NoBranch            0      0.00%      0.00% # Number of BP lookups (Count)
system.cpu.branchPred.lookups_0::Return          9669      0.36%      0.36% # Number of BP lookups (Count)
system.cpu.branchPred.lookups_0::CallDirect        10093      0.37%      0.73% # Number of BP lookups (Count)
system.cpu.branchPred.lookups_0::CallIndirect           58      0.00%      0.73% # Number of BP lookups (Count)
system.cpu.branchPred.lookups_0::DirectCond      2454258     90.81%     91.54% # Number of BP lookups (Count)
system.cpu.branchPred.lookups_0::DirectUncond       227942      8.43%     99.97% # Number of BP lookups (Count)
system.cpu.branchPred.lookups_0::IndirectCond            0      0.00%     99.97% # Number of BP lookups (Count)
system.cpu.branchPred.lookups_0::IndirectUncond          724      0.03%    100.00% # Number of BP lookups (Count)
system.cpu.branchPred.lookups_0::total        2702744                       # Number of BP lookups (Count)
system.cpu.branchPred.squashes_0::NoBranch            0      0.00%      0.00% # Number of branches that got squashed (completely removed) as an earlier branch was mispredicted. (Count)
system.cpu.branchPred.squashes_0::Return          650      0.41%      0.41% # Number of branches that got squashed (completely removed) as an earlier branch was mispredicted. (Count)
system.cpu.branchPred.squashes_0::CallDirect         1093      0.68%      1.09% # Number of branches that got squashed (completely removed) as an earlier branch was mispredicted. (Count)
system.cpu.branchPred.squashes_0::CallIndirect           34      0.02%      1.11% # Number of branches that got squashed (completely removed) as an earlier branch was mispredicted. (Count)
system.cpu.branchPred.squashes_0::DirectCond       142273     88.85%     89.96% # Number of branches that got squashed (completely removed) as an earlier branch was mispredicted. (Count)
system.cpu.branchPred.squashes_0::DirectUncond        15527      9.70%     99.66% # Number of branches that got squashed (completely removed) as an earlier branch was mispredicted. (Count)
system.cpu.branchPred.squashes_0::IndirectCond            0      0.00%     99.66% # Number of branches that got squashed (completely removed) as an earlier branch was mispredicted. (Count)
system.cpu.branchPred.squashes_0::IndirectUncond          543      0.34%    100.00% # Number of branches that got squashed (completely removed) as an earlier branch was mispredicted. (Count)
system.cpu.branchPred.squashes_0::total        160120                       # Number of branches that got squashed (completely removed) as an earlier branch was mispredicted. (Count)
system.cpu.branchPred.corrected_0::NoBranch            0      0.00%      0.00% # Number of branches that got corrected but not yet commited. Branches get corrected by decode or after execute. Also a branch misprediction can be detected out-of-order. Therefore, a corrected branch might not end up beeing committed in case an even earlier branch was mispredicted (Count)
system.cpu.branchPred.corrected_0::Return            5      0.02%      0.02% # Number of branches that got corrected but not yet commited. Branches get corrected by decode or after execute. Also a branch misprediction can be detected out-of-order. Therefore, a corrected branch might not end up beeing committed in case an even earlier branch was mispredicted (Count)
system.cpu.branchPred.corrected_0::CallDirect          381      1.42%      1.43% # Number of branches that got corrected but not yet commited. Branches get corrected by decode or after execute. Also a branch misprediction can be detected out-of-order. Therefore, a corrected branch might not end up beeing committed in case an even earlier branch was mispredicted (Count)
system.cpu.branchPred.corrected_0::CallIndirect           24      0.09%      1.52% # Number of branches that got corrected but not yet commited. Branches get corrected by decode or after execute. Also a branch misprediction can be detected out-of-order. Therefore, a corrected branch might not end up beeing committed in case an even earlier branch was mispredicted (Count)
system.cpu.branchPred.corrected_0::DirectCond        26196     97.36%     98.89% # Number of branches that got corrected but not yet commited. Branches get corrected by decode or after execute. Also a branch misprediction can be detected out-of-order. Therefore, a corrected branch might not end up beeing committed in case an even earlier branch was mispredicted (Count)
system.cpu.branchPred.corrected_0::DirectUncond          204      0.76%     99.64% # Number of branches that got corrected but not yet commited. Branches get corrected by decode or after execute. Also a branch misprediction can be detected out-of-order. Therefore, a corrected branch might not end up beeing committed in case an even earlier branch was mispredicted (Count)
system.cpu.branchPred.corrected_0::IndirectCond            0      0.00%     99.64% # Number of branches that got corrected but not yet commited. Branches get corrected by decode or after execute. Also a branch misprediction can be detected out-of-order. Therefore, a corrected branch might not end up beeing committed in case an even earlier branch was mispredicted (Count)
system.cpu.branchPred.corrected_0::IndirectUncond           96      0.36%    100.00% # Number of branches that got corrected but not yet commited. Branches get corrected by decode or after execute. Also a branch misprediction can be detected out-of-order. Therefore, a corrected branch might not end up beeing committed in case an even earlier branch was mispredicted (Count)
system.cpu.branchPred.corrected_0::total        26906                       # Number of branches that got corrected but not yet commited. Branches get corrected by decode or after execute. Also a branch misprediction can be detected out-of-order. Therefore, a corrected branch might not end up beeing committed in case an even earlier branch was mispredicted (Count)
system.cpu.branchPred.earlyResteers_0::NoBranch            0                       # Number of branches that got redirected after decode. (Count)
system.cpu.branchPred.earlyResteers_0::Return            0                       # Number of branches that got redirected after decode. (Count)
system.cpu.branchPred.earlyResteers_0::CallDirect            0                       # Number of branches that got redirected after decode. (Count)
system.cpu.branchPred.earlyResteers_0::CallIndirect            0                       # Number of branches that got redirected after decode. (Count)
system.cpu.branchPred.earlyResteers_0::DirectCond            0                       # Number of branches that got redirected after decode. (Count)
system.cpu.branchPred.earlyResteers_0::DirectUncond            0                       # Number of branches that got redirected after decode. (Count)
system.cpu.branchPred.earlyResteers_0::IndirectCond            0                       # Number of branches that got redirected after decode. (Count)
system.cpu.branchPred.earlyResteers_0::IndirectUncond            0                       # Number of branches that got redirected after decode. (Count)
system.cpu.branchPred.earlyResteers_0::total            0                       # Number of branches that got redirected after decode. (Count)
system.cpu.branchPred.committed_0::NoBranch            0      0.00%      0.00% # Number of branches finally committed  (Count)
system.cpu.branchPred.committed_0::Return         9019      0.35%      0.35% # Number of branches finally committed  (Count)
system.cpu.branchPred.committed_0::CallDirect         9000      0.35%      0.71% # Number of branches finally committed  (Count)
system.cpu.branchPred.committed_0::CallIndirect           24      0.00%      0.71% # Number of branches finally committed  (Count)
system.cpu.branchPred.committed_0::DirectCond      2311983     90.93%     91.64% # Number of branches finally committed  (Count)
system.cpu.branchPred.committed_0::DirectUncond       212414      8.35%     99.99% # Number of branches finally committed  (Count)
system.cpu.branchPred.committed_0::IndirectCond            0      0.00%     99.99% # Number of branches finally committed  (Count)
system.cpu.branchPred.committed_0::IndirectUncond          181      0.01%    100.00% # Number of branches finally committed  (Count)
system.cpu.branchPred.committed_0::total      2542621                       # Number of branches finally committed  (Count)
system.cpu.branchPred.mispredicted_0::NoBranch            0      0.00%      0.00% # Number of committed branches that were mispredicted. (Count)
system.cpu.branchPred.mispredicted_0::Return            0      0.00%      0.00% # Number of committed branches that were mispredicted. (Count)
system.cpu.branchPred.mispredicted_0::CallDirect          221      0.84%      0.84% # Number of committed branches that were mispredicted. (Count)
system.cpu.branchPred.mispredicted_0::CallIndirect           24      0.09%      0.93% # Number of committed branches that were mispredicted. (Count)
system.cpu.branchPred.mispredicted_0::DirectCond        25762     98.31%     99.24% # Number of committed branches that were mispredicted. (Count)
system.cpu.branchPred.mispredicted_0::DirectUncond          112      0.43%     99.67% # Number of committed branches that were mispredicted. (Count)
system.cpu.branchPred.mispredicted_0::IndirectCond            0      0.00%     99.67% # Number of committed branches that were mispredicted. (Count)
system.cpu.branchPred.mispredicted_0::IndirectUncond           87      0.33%    100.00% # Number of committed branches that were mispredicted. (Count)
system.cpu.branchPred.mispredicted_0::total        26206                       # Number of committed branches that were mispredicted. (Count)
system.cpu.branchPred.targetProvider_0::NoTarget       611995     22.64%     22.64% # The component providing the target for taken branches (Count)
system.cpu.branchPred.targetProvider_0::BTB      2080880     76.99%     99.63% # The component providing the target for taken branches (Count)
system.cpu.branchPred.targetProvider_0::RAS         9669      0.36%     99.99% # The component providing the target for taken branches (Count)
system.cpu.branchPred.targetProvider_0::Indirect          200      0.01%    100.00% # The component providing the target for taken branches (Count)
system.cpu.branchPred.targetProvider_0::total      2702744                       # The component providing the target for taken branches (Count)
system.cpu.branchPred.targetWrong_0::NoBranch         8135     30.23%     30.23% # Number of branches where the target was incorrect or not available at prediction time. (Count)
system.cpu.branchPred.targetWrong_0::Return        18751     69.69%     99.93% # Number of branches where the target was incorrect or not available at prediction time. (Count)
system.cpu.branchPred.targetWrong_0::CallDirect            5      0.02%     99.94% # Number of branches where the target was incorrect or not available at prediction time. (Count)
system.cpu.branchPred.targetWrong_0::CallIndirect           15      0.06%    100.00% # Number of branches where the target was incorrect or not available at prediction time. (Count)
system.cpu.branchPred.targetWrong_0::DirectCond            0      0.00%    100.00% # Number of branches where the target was incorrect or not available at prediction time. (Count)
system.cpu.branchPred.targetWrong_0::DirectUncond            0      0.00%    100.00% # Number of branches where the target was incorrect or not available at prediction time. (Count)
system.cpu.branchPred.targetWrong_0::IndirectCond            0      0.00%    100.00% # Number of branches where the target was incorrect or not available at prediction time. (Count)
system.cpu.branchPred.targetWrong_0::IndirectUncond            0      0.00%    100.00% # Number of branches where the target was incorrect or not available at prediction time. (Count)
system.cpu.branchPred.targetWrong_0::total        26906                       # Number of branches where the target was incorrect or not available at prediction time. (Count)
system.cpu.branchPred.condPredicted           2454258                       # Number of conditional branches predicted (Count)
system.cpu.branchPred.condPredictedTaken      1845380                       # Number of conditional branches predicted as taken (Count)
system.cpu.branchPred.condIncorrect             26906                       # Number of conditional branches incorrect (Count)
system.cpu.branchPred.predTakenBTBMiss            744                       # Number of branches predicted taken but missed in BTB (Count)
system.cpu.branchPred.NotTakenMispredicted         8155                       # Number branches predicted 'not taken' but turned out to be taken (Count)
system.cpu.branchPred.TakenMispredicted         18751                       # Number branches predicted taken but are actually not taken (Count)
system.cpu.branchPred.BTBLookups              2702744                       # Number of BTB lookups (Count)
system.cpu.branchPred.BTBUpdates                 8030                       # Number of BTB updates (Count)
system.cpu.branchPred.BTBHits                 2643298                       # Number of BTB hits (Count)
system.cpu.branchPred.BTBHitRatio            0.978005                       # BTB Hit Ratio (Ratio)
system.cpu.branchPred.BTBMispredicted            1094                       # Number BTB mispredictions. No target found or target wrong (Count)
system.cpu.branchPred.indirectLookups             782                       # Number of indirect predictor lookups. (Count)
system.cpu.branchPred.indirectHits                200                       # Number of indirect target hits. (Count)
system.cpu.branchPred.indirectMisses              582                       # Number of indirect misses. (Count)
system.cpu.branchPred.indirectMispredicted            0                       # Number of mispredicted indirect branches. (Count)
system.cpu.branchPred.btb.lookups::NoBranch            0      0.00%      0.00% # Number of BTB lookups (Count)
system.cpu.branchPred.btb.lookups::Return         9669      0.36%      0.36% # Number of BTB lookups (Count)
system.cpu.branchPred.btb.lookups::CallDirect        10093      0.37%      0.73% # Number of BTB lookups (Count)
system.cpu.branchPred.btb.lookups::CallIndirect           58      0.00%      0.73% # Number of BTB lookups (Count)
system.cpu.branchPred.btb.lookups::DirectCond      2454258     90.81%     91.54% # Number of BTB lookups (Count)
system.cpu.branchPred.btb.lookups::DirectUncond       227942      8.43%     99.97% # Number of BTB lookups (Count)
system.cpu.branchPred.btb.lookups::IndirectCond            0      0.00%     99.97% # Number of BTB lookups (Count)
system.cpu.branchPred.btb.lookups::IndirectUncond          724      0.03%    100.00% # Number of BTB lookups (Count)
system.cpu.branchPred.btb.lookups::total      2702744                       # Number of BTB lookups (Count)
system.cpu.branchPred.btb.misses::NoBranch            0      0.00%      0.00% # Number of BTB misses (Count)
system.cpu.branchPred.btb.misses::Return         9669     16.27%     16.27% # Number of BTB misses (Count)
system.cpu.branchPred.btb.misses::CallDirect          835      1.40%     17.67% # Number of BTB misses (Count)
system.cpu.branchPred.btb.misses::CallIndirect           58      0.10%     17.77% # Number of BTB misses (Count)
system.cpu.branchPred.btb.misses::DirectCond        47778     80.37%     98.14% # Number of BTB misses (Count)
system.cpu.branchPred.btb.misses::DirectUncond          382      0.64%     98.78% # Number of BTB misses (Count)
system.cpu.branchPred.btb.misses::IndirectCond            0      0.00%     98.78% # Number of BTB misses (Count)
system.cpu.branchPred.btb.misses::IndirectUncond          724      1.22%    100.00% # Number of BTB misses (Count)
system.cpu.branchPred.btb.misses::total         59446                       # Number of BTB misses (Count)
system.cpu.branchPred.btb.updates::NoBranch            0      0.00%      0.00% # Number of BTB updates (Count)
system.cpu.branchPred.btb.updates::Return            0      0.00%      0.00% # Number of BTB updates (Count)
system.cpu.branchPred.btb.updates::CallDirect          381      4.74%      4.74% # Number of BTB updates (Count)
system.cpu.branchPred.btb.updates::CallIndirect            0      0.00%      4.74% # Number of BTB updates (Count)
system.cpu.branchPred.btb.updates::DirectCond         7445     92.71%     97.46% # Number of BTB updates (Count)
system.cpu.branchPred.btb.updates::DirectUncond          204      2.54%    100.00% # Number of BTB updates (Count)
system.cpu.branchPred.btb.updates::IndirectCond            0      0.00%    100.00% # Number of BTB updates (Count)
system.cpu.branchPred.btb.updates::IndirectUncond            0      0.00%    100.00% # Number of BTB updates (Count)
system.cpu.branchPred.btb.updates::total         8030                       # Number of BTB updates (Count)
system.cpu.branchPred.btb.mispredict::NoBranch            0      0.00%      0.00% # Number of BTB mispredictions. No target found or target wrong. (Count)
system.cpu.branchPred.btb.mispredict::Return            0      0.00%      0.00% # Number of BTB mispredictions. No target found or target wrong. (Count)
system.cpu.branchPred.btb.mispredict::CallDirect          381      4.74%      4.74% # Number of BTB mispredictions. No target found or target wrong. (Count)
system.cpu.branchPred.btb.mispredict::CallIndirect            0      0.00%      4.74% # Number of BTB mispredictions. No target found or target wrong. (Count)
system.cpu.branchPred.btb.mispredict::DirectCond         7445     92.71%     97.46% # Number of BTB mispredictions. No target found or target wrong. (Count)
system.cpu.branchPred.btb.mispredict::DirectUncond          204      2.54%    100.00% # Number of BTB mispredictions. No target found or target wrong. (Count)
system.cpu.branchPred.btb.mispredict::IndirectCond            0      0.00%    100.00% # Number of BTB mispredictions. No target found or target wrong. (Count)
system.cpu.branchPred.btb.mispredict::IndirectUncond            0      0.00%    100.00% # Number of BTB mispredictions. No target found or target wrong. (Count)
system.cpu.branchPred.btb.mispredict::total         8030                       # Number of BTB mispredictions. No target found or target wrong. (Count)
system.cpu.branchPred.btb.power_state.pwrStateResidencyTicks::UNDEFINED   3833919500                       # Cumulative time (in ticks) in various power states (Tick)
system.cpu.branchPred.indirectBranchPred.lookups          782                       # Number of lookups (Count)
system.cpu.branchPred.indirectBranchPred.hits          200                       # Number of hits of a tag (Count)
system.cpu.branchPred.indirectBranchPred.misses          582                       # Number of misses (Count)
system.cpu.branchPred.indirectBranchPred.targetRecords          120                       # Number of targets that where recorded/installed in the cache (Count)
system.cpu.branchPred.indirectBranchPred.indirectRecords          902                       # Number of indirect branches/calls recorded in the indirect hist (Count)
system.cpu.branchPred.indirectBranchPred.speculativeOverflows            2                       # Number of times more than the allowed capacity for speculative branches/calls where in flight and destroy the path history (Count)
system.cpu.branchPred.ras.pushes                10801                       # Number of times a PC was pushed onto the RAS (Count)
system.cpu.branchPred.ras.pops                  10796                       # Number of times a PC was poped from the RAS (Count)
system.cpu.branchPred.ras.squashes               1777                       # Number of times the stack operation was squashed due to wrong speculation. (Count)
system.cpu.branchPred.ras.used                   9019                       # Number of times the RAS is the provider (Count)
system.cpu.branchPred.ras.correct                9019                       # Number of times the RAS is the provider and the prediction is correct (Count)
system.cpu.branchPred.ras.incorrect                 0                       # Number of times the RAS is the provider and the prediction is wrong (Count)
system.cpu.commit.commitSquashedInsts          457249                       # The number of squashed insts skipped by commit (Count)
system.cpu.commit.commitNonSpecStalls              39                       # The number of times commit has been forced to stall to communicate backwards (Count)
system.cpu.commit.branchMispredicts             26321                       # The number of times a branch was mispredicted (Count)
system.cpu.commit.numCommittedDist::samples      7525454                       # Number of insts commited each cycle (Count)
system.cpu.commit.numCommittedDist::mean     3.316630                       # Number of insts commited each cycle (Count)
system.cpu.commit.numCommittedDist::stdev     3.317148                       # Number of insts commited each cycle (Count)
system.cpu.commit.numCommittedDist::underflows            0      0.00%      0.00% # Number of insts commited each cycle (Count)
system.cpu.commit.numCommittedDist::0         2711433     36.03%     36.03% # Number of insts commited each cycle (Count)
system.cpu.commit.numCommittedDist::1          893211     11.87%     47.90% # Number of insts commited each cycle (Count)
system.cpu.commit.numCommittedDist::2          275162      3.66%     51.56% # Number of insts commited each cycle (Count)
system.cpu.commit.numCommittedDist::3          512611      6.81%     58.37% # Number of insts commited each cycle (Count)
system.cpu.commit.numCommittedDist::4           98690      1.31%     59.68% # Number of insts commited each cycle (Count)
system.cpu.commit.numCommittedDist::5          499374      6.64%     66.31% # Number of insts commited each cycle (Count)
system.cpu.commit.numCommittedDist::6          290950      3.87%     70.18% # Number of insts commited each cycle (Count)
system.cpu.commit.numCommittedDist::7          611739      8.13%     78.31% # Number of insts commited each cycle (Count)
system.cpu.commit.numCommittedDist::8         1632284     21.69%    100.00% # Number of insts commited each cycle (Count)
system.cpu.commit.numCommittedDist::overflows            0      0.00%    100.00% # Number of insts commited each cycle (Count)
system.cpu.commit.numCommittedDist::min_value            0                       # Number of insts commited each cycle (Count)
system.cpu.commit.numCommittedDist::max_value            8                       # Number of insts commited each cycle (Count)
system.cpu.commit.numCommittedDist::total      7525454                       # Number of insts commited each cycle (Count)
system.cpu.commit.amos                              0                       # Number of atomic instructions committed (Count)
system.cpu.commit.membars                          11                       # Number of memory barriers committed (Count)
system.cpu.commit.functionCalls                  9024                       # Number of function calls committed. (Count)
system.cpu.commit.committedInstType_0::No_OpClass           58      0.00%      0.00% # Class of committed instruction (Count)
system.cpu.commit.committedInstType_0::IntAlu     12269007     49.16%     49.16% # Class of committed instruction (Count)
system.cpu.commit.committedInstType_0::IntMult       119814      0.48%     49.64% # Class of committed instruction (Count)
system.cpu.commit.committedInstType_0::IntDiv           24      0.00%     49.64% # Class of committed instruction (Count)
system.cpu.commit.committedInstType_0::FloatAdd        11326      0.05%     49.68% # Class of committed instruction (Count)
system.cpu.commit.committedInstType_0::FloatCmp       234562      0.94%     50.62% # Class of committed instruction (Count)
system.cpu.commit.committedInstType_0::FloatCvt       119107      0.48%     51.10% # Class of committed instruction (Count)
system.cpu.commit.committedInstType_0::FloatMult         7527      0.03%     51.13% # Class of committed instruction (Count)
system.cpu.commit.committedInstType_0::FloatMultAcc       390252      1.56%     52.69% # Class of committed instruction (Count)
system.cpu.commit.committedInstType_0::FloatDiv         4405      0.02%     52.71% # Class of committed instruction (Count)
system.cpu.commit.committedInstType_0::FloatMisc       115653      0.46%     53.17% # Class of committed instruction (Count)
system.cpu.commit.committedInstType_0::FloatSqrt            0      0.00%     53.17% # Class of committed instruction (Count)
system.cpu.commit.committedInstType_0::SimdAdd            1      0.00%     53.17% # Class of committed instruction (Count)
system.cpu.commit.committedInstType_0::SimdAddAcc            0      0.00%     53.17% # Class of committed instruction (Count)
system.cpu.commit.committedInstType_0::SimdAlu           81      0.00%     53.17% # Class of committed instruction (Count)
system.cpu.commit.committedInstType_0::SimdCmp          246      0.00%     53.18% # Class of committed instruction (Count)
system.cpu.commit.committedInstType_0::SimdCvt            3      0.00%     53.18% # Class of committed instruction (Count)
system.cpu.commit.committedInstType_0::SimdMisc       114087      0.46%     53.63% # Class of committed instruction (Count)
system.cpu.commit.committedInstType_0::SimdMult            0      0.00%     53.63% # Class of committed instruction (Count)
system.cpu.commit.committedInstType_0::SimdMultAcc            0      0.00%     53.63% # Class of committed instruction (Count)
system.cpu.commit.committedInstType_0::SimdMatMultAcc            0      0.00%     53.63% # Class of committed instruction (Count)
system.cpu.commit.committedInstType_0::SimdShift           50      0.00%     53.63% # Class of committed instruction (Count)
system.cpu.commit.committedInstType_0::SimdShiftAcc            0      0.00%     53.63% # Class of committed instruction (Count)
system.cpu.commit.committedInstType_0::SimdDiv            0      0.00%     53.63% # Class of committed instruction (Count)
system.cpu.commit.committedInstType_0::SimdSqrt            0      0.00%     53.63% # Class of committed instruction (Count)
system.cpu.commit.committedInstType_0::SimdFloatAdd        55200      0.22%     53.85% # Class of committed instruction (Count)
system.cpu.commit.committedInstType_0::SimdFloatAlu           24      0.00%     53.85% # Class of committed instruction (Count)
system.cpu.commit.committedInstType_0::SimdFloatCmp            0      0.00%     53.85% # Class of committed instruction (Count)
system.cpu.commit.committedInstType_0::SimdFloatCvt            0      0.00%     53.85% # Class of committed instruction (Count)
system.cpu.commit.committedInstType_0::SimdFloatDiv            0      0.00%     53.85% # Class of committed instruction (Count)
system.cpu.commit.committedInstType_0::SimdFloatMisc            0      0.00%     53.85% # Class of committed instruction (Count)
system.cpu.commit.committedInstType_0::SimdFloatMult        25344      0.10%     53.96% # Class of committed instruction (Count)
system.cpu.commit.committedInstType_0::SimdFloatMultAcc      1765312      7.07%     61.03% # Class of committed instruction (Count)
system.cpu.commit.committedInstType_0::SimdFloatMatMultAcc            0      0.00%     61.03% # Class of committed instruction (Count)
system.cpu.commit.committedInstType_0::SimdFloatSqrt            0      0.00%     61.03% # Class of committed instruction (Count)
system.cpu.commit.committedInstType_0::SimdReduceAdd            0      0.00%     61.03% # Class of committed instruction (Count)
system.cpu.commit.committedInstType_0::SimdReduceAlu            0      0.00%     61.03% # Class of committed instruction (Count)
system.cpu.commit.committedInstType_0::SimdReduceCmp            0      0.00%     61.03% # Class of committed instruction (Count)
system.cpu.commit.committedInstType_0::SimdFloatReduceAdd            0      0.00%     61.03% # Class of committed instruction (Count)
system.cpu.commit.committedInstType_0::SimdFloatReduceCmp            0      0.00%     61.03% # Class of committed instruction (Count)
system.cpu.commit.committedInstType_0::SimdAes            0      0.00%     61.03% # Class of committed instruction (Count)
system.cpu.commit.committedInstType_0::SimdAesMix            0      0.00%     61.03% # Class of committed instruction (Count)
system.cpu.commit.committedInstType_0::SimdSha1Hash            0      0.00%     61.03% # Class of committed instruction (Count)
system.cpu.commit.committedInstType_0::SimdSha1Hash2            0      0.00%     61.03% # Class of committed instruction (Count)
system.cpu.commit.committedInstType_0::SimdSha256Hash            0      0.00%     61.03% # Class of committed instruction (Count)
system.cpu.commit.committedInstType_0::SimdSha256Hash2            0      0.00%     61.03% # Class of committed instruction (Count)
system.cpu.commit.committedInstType_0::SimdShaSigma2            0      0.00%     61.03% # Class of committed instruction (Count)
system.cpu.commit.committedInstType_0::SimdShaSigma3            0      0.00%     61.03% # Class of committed instruction (Count)
system.cpu.commit.committedInstType_0::SimdPredAlu            0      0.00%     61.03% # Class of committed instruction (Count)
system.cpu.commit.committedInstType_0::Matrix            0      0.00%     61.03% # Class of committed instruction (Count)
system.cpu.commit.committedInstType_0::MatrixMov            0      0.00%     61.03% # Class of committed instruction (Count)
system.cpu.commit.committedInstType_0::MatrixOP            0      0.00%     61.03% # Class of committed instruction (Count)
system.cpu.commit.committedInstType_0::MemRead      5132071     20.56%     81.59% # Class of committed instruction (Count)
system.cpu.commit.committedInstType_0::MemWrite      4594989     18.41%    100.00% # Class of committed instruction (Count)
system.cpu.commit.committedInstType_0::FloatMemRead            0      0.00%    100.00% # Class of committed instruction (Count)
system.cpu.commit.committedInstType_0::FloatMemWrite            0      0.00%    100.00% # Class of committed instruction (Count)
system.cpu.commit.committedInstType_0::IprAccess            0      0.00%    100.00% # Class of committed instruction (Count)
system.cpu.commit.committedInstType_0::InstPrefetch            0      0.00%    100.00% # Class of committed instruction (Count)
system.cpu.commit.committedInstType_0::VectorUnitStrideLoad            0      0.00%    100.00% # Class of committed instruction (Count)
system.cpu.commit.committedInstType_0::VectorUnitStrideStore            0      0.00%    100.00% # Class of committed instruction (Count)
system.cpu.commit.committedInstType_0::VectorUnitStrideMaskLoad            0      0.00%    100.00% # Class of committed instruction (Count)
system.cpu.commit.committedInstType_0::VectorUnitStrideMaskStore            0      0.00%    100.00% # Class of committed instruction (Count)
system.cpu.commit.committedInstType_0::VectorStridedLoad            0      0.00%    100.00% # Class of committed instruction (Count)
system.cpu.commit.committedInstType_0::VectorStridedStore            0      0.00%    100.00% # Class of committed instruction (Count)
system.cpu.commit.committedInstType_0::VectorIndexedLoad            0      0.00%    100.00% # Class of committed instruction (Count)
system.cpu.commit.committedInstType_0::VectorIndexedStore            0      0.00%    100.00% # Class of committed instruction (Count)
system.cpu.commit.committedInstType_0::VectorUnitStrideFaultOnlyFirstLoad            0      0.00%    100.00% # Class of committed instruction (Count)
system.cpu.commit.committedInstType_0::VectorWholeRegisterLoad            0      0.00%    100.00% # Class of committed instruction (Count)
system.cpu.commit.committedInstType_0::VectorWholeRegisterStore            0      0.00%    100.00% # Class of committed instruction (Count)
system.cpu.commit.committedInstType_0::VectorIntegerArith            0      0.00%    100.00% # Class of committed instruction (Count)
system.cpu.commit.committedInstType_0::VectorFloatArith            0      0.00%    100.00% # Class of committed instruction (Count)
system.cpu.commit.committedInstType_0::VectorFloatConvert            0      0.00%    100.00% # Class of committed instruction (Count)
system.cpu.commit.committedInstType_0::VectorIntegerReduce            0      0.00%    100.00% # Class of committed instruction (Count)
[...]
system.mem_ctrls.dram.bwRead::cpu.inst       20298809                       # Total read bandwidth from this memory ((Byte/Second))
system.mem_ctrls.dram.bwRead::cpu.data      510441599                       # Total read bandwidth from this memory ((Byte/Second))
system.mem_ctrls.dram.bwRead::total         530740408                       # Total read bandwidth from this memory ((Byte/Second))
system.mem_ctrls.dram.bwInstRead::cpu.inst     20298809                       # Instruction read bandwidth from this memory ((Byte/Second))
system.mem_ctrls.dram.bwInstRead::total      20298809                       # Instruction read bandwidth from this memory ((Byte/Second))
system.mem_ctrls.dram.bwWrite::writebacks    355062228                       # Write bandwidth from this memory ((Byte/Second))
system.mem_ctrls.dram.bwWrite::total        355062228                       # Write bandwidth from this memory ((Byte/Second))
system.mem_ctrls.dram.bwTotal::writebacks    355062228                       # Total bandwidth to/from this memory ((Byte/Second))
system.mem_ctrls.dram.bwTotal::cpu.inst      20298809                       # Total bandwidth to/from this memory ((Byte/Second))
system.mem_ctrls.dram.bwTotal::cpu.data     510441599                       # Total bandwidth to/from this memory ((Byte/Second))
system.mem_ctrls.dram.bwTotal::total        885802636                       # Total bandwidth to/from this memory ((Byte/Second))
system.mem_ctrls.dram.readBursts                26620                       # Number of DRAM read bursts (Count)
system.mem_ctrls.dram.writeBursts               21525                       # Number of DRAM write bursts (Count)
system.mem_ctrls.dram.perBankRdBursts::0          170                       # Per bank write bursts (Count)
system.mem_ctrls.dram.perBankRdBursts::1          345                       # Per bank write bursts (Count)
system.mem_ctrls.dram.perBankRdBursts::2          148                       # Per bank write bursts (Count)
system.mem_ctrls.dram.perBankRdBursts::3         1521                       # Per bank write bursts (Count)
system.mem_ctrls.dram.perBankRdBursts::4          193                       # Per bank write bursts (Count)
system.mem_ctrls.dram.perBankRdBursts::5          388                       # Per bank write bursts (Count)
system.mem_ctrls.dram.perBankRdBursts::6          252                       # Per bank write bursts (Count)
system.mem_ctrls.dram.perBankRdBursts::7         6507                       # Per bank write bursts (Count)
system.mem_ctrls.dram.perBankRdBursts::8          201                       # Per bank write bursts (Count)
system.mem_ctrls.dram.perBankRdBursts::9          215                       # Per bank write bursts (Count)
system.mem_ctrls.dram.perBankRdBursts::10          139                       # Per bank write bursts (Count)
system.mem_ctrls.dram.perBankRdBursts::11         8623                       # Per bank write bursts (Count)
system.mem_ctrls.dram.perBankRdBursts::12          248                       # Per bank write bursts (Count)
system.mem_ctrls.dram.perBankRdBursts::13          370                       # Per bank write bursts (Count)
system.mem_ctrls.dram.perBankRdBursts::14          196                       # Per bank write bursts (Count)
system.mem_ctrls.dram.perBankRdBursts::15         7104                       # Per bank write bursts (Count)
system.mem_ctrls.dram.perBankWrBursts::0          106                       # Per bank write bursts (Count)
system.mem_ctrls.dram.perBankWrBursts::1          235                       # Per bank write bursts (Count)
system.mem_ctrls.dram.perBankWrBursts::2           69                       # Per bank write bursts (Count)
system.mem_ctrls.dram.perBankWrBursts::3          148                       # Per bank write bursts (Count)
system.mem_ctrls.dram.perBankWrBursts::4          136                       # Per bank write bursts (Count)
system.mem_ctrls.dram.perBankWrBursts::5          120                       # Per bank write bursts (Count)
system.mem_ctrls.dram.perBankWrBursts::6          127                       # Per bank write bursts (Count)
system.mem_ctrls.dram.perBankWrBursts::7         5913                       # Per bank write bursts (Count)
system.mem_ctrls.dram.perBankWrBursts::8           96                       # Per bank write bursts (Count)
system.mem_ctrls.dram.perBankWrBursts::9          189                       # Per bank write bursts (Count)
system.mem_ctrls.dram.perBankWrBursts::10          104                       # Per bank write bursts (Count)
system.mem_ctrls.dram.perBankWrBursts::11         7063                       # Per bank write bursts (Count)
system.mem_ctrls.dram.perBankWrBursts::12           36                       # Per bank write bursts (Count)
system.mem_ctrls.dram.perBankWrBursts::13          167                       # Per bank write bursts (Count)
system.mem_ctrls.dram.perBankWrBursts::14           46                       # Per bank write bursts (Count)
system.mem_ctrls.dram.perBankWrBursts::15         6970                       # Per bank write bursts (Count)
system.mem_ctrls.dram.totQLat               456402750                       # Total ticks spent queuing (Tick)
system.mem_ctrls.dram.totBusLat             133100000                       # Total ticks spent in databus transfers (Tick)
system.mem_ctrls.dram.totMemAccLat          955527750                       # Total ticks spent from burst creation until serviced by the DRAM (Tick)
system.mem_ctrls.dram.avgQLat                17145.11                       # Average queueing delay per DRAM burst ((Tick/Count))
system.mem_ctrls.dram.avgBusLat               5000.00                       # Average bus latency per DRAM burst ((Tick/Count))
system.mem_ctrls.dram.avgMemAccLat           35895.11                       # Average memory access latency per DRAM burst ((Tick/Count))
system.mem_ctrls.dram.readRowHits               24203                       # Number of row buffer hits during reads (Count)
system.mem_ctrls.dram.writeRowHits              19942                       # Number of row buffer hits during writes (Count)
system.mem_ctrls.dram.readRowHitRate            90.92                       # Row buffer hit rate for reads (Ratio)
system.mem_ctrls.dram.writeRowHitRate           92.65                       # Row buffer hit rate for writes (Ratio)
system.mem_ctrls.dram.bytesPerActivate::samples         3986                       # Bytes accessed per row activation (Byte)
system.mem_ctrls.dram.bytesPerActivate::mean   771.997993                       # Bytes accessed per row activation (Byte)
system.mem_ctrls.dram.bytesPerActivate::gmean   589.402527                       # Bytes accessed per row activation (Byte)
system.mem_ctrls.dram.bytesPerActivate::stdev   372.355707                       # Bytes accessed per row activation (Byte)
system.mem_ctrls.dram.bytesPerActivate::0-127          364      9.13%      9.13% # Bytes accessed per row activation (Byte)
system.mem_ctrls.dram.bytesPerActivate::128-255          317      7.95%     17.08% # Bytes accessed per row activation (Byte)
system.mem_ctrls.dram.bytesPerActivate::256-383          238      5.97%     23.06% # Bytes accessed per row activation (Byte)
system.mem_ctrls.dram.bytesPerActivate::384-511          146      3.66%     26.72% # Bytes accessed per row activation (Byte)
system.mem_ctrls.dram.bytesPerActivate::512-639          111      2.78%     29.50% # Bytes accessed per row activation (Byte)
system.mem_ctrls.dram.bytesPerActivate::640-767           89      2.23%     31.74% # Bytes accessed per row activation (Byte)
system.mem_ctrls.dram.bytesPerActivate::768-895           89      2.23%     33.97% # Bytes accessed per row activation (Byte)
system.mem_ctrls.dram.bytesPerActivate::896-1023           87      2.18%     36.15% # Bytes accessed per row activation (Byte)
system.mem_ctrls.dram.bytesPerActivate::1024-1151         2545     63.85%    100.00% # Bytes accessed per row activation (Byte)
system.mem_ctrls.dram.bytesPerActivate::total         3986                       # Bytes accessed per row activation (Byte)
system.mem_ctrls.dram.dramBytesRead           1703680                       # Total bytes read (Byte)
system.mem_ctrls.dram.dramBytesWritten        1377600                       # Total bytes written (Byte)
system.mem_ctrls.dram.avgRdBW              444.370311                       # Average DRAM read bandwidth in MiBytes/s ((Byte/Second))
system.mem_ctrls.dram.avgWrBW              359.318968                       # Average DRAM write bandwidth in MiBytes/s ((Byte/Second))
system.mem_ctrls.dram.peakBW                 12800.00                       # Theoretical peak bandwidth in MiByte/s ((Byte/Second))
system.mem_ctrls.dram.busUtil                    6.28                       # Data bus utilization in percentage (Ratio)
system.mem_ctrls.dram.busUtilRead                3.47                       # Data bus utilization in percentage for reads (Ratio)
system.mem_ctrls.dram.busUtilWrite               2.81                       # Data bus utilization in percentage for writes (Ratio)
system.mem_ctrls.dram.pageHitRate               91.69                       # Row buffer hit rate, read and write combined (Ratio)
system.mem_ctrls.dram.power_state.pwrStateResidencyTicks::UNDEFINED   3833919500                       # Cumulative time (in ticks) in various power states (Tick)
system.mem_ctrls.dram.rank0.actEnergy        11067000                       # Energy for activate commands per rank (pJ) (Joule)
system.mem_ctrls.dram.rank0.preEnergy         5851890                       # Energy for precharge commands per rank (pJ) (Joule)
system.mem_ctrls.dram.rank0.readEnergy       68001360                       # Energy for read commands per rank (pJ) (Joule)
system.mem_ctrls.dram.rank0.writeEnergy      35777880                       # Energy for write commands per rank (pJ) (Joule)
system.mem_ctrls.dram.rank0.refreshEnergy 302402880.000000                       # Energy for refresh commands per rank (pJ) (Joule)
system.mem_ctrls.dram.rank0.actBackEnergy    670630650                       # Energy for active background per rank (pJ) (Joule)
system.mem_ctrls.dram.rank0.preBackEnergy    907483680                       # Energy for precharge background per rank (pJ) (Joule)
system.mem_ctrls.dram.rank0.actPowerDownEnergy            0                       # Energy for active power-down per rank (pJ) (Joule)
system.mem_ctrls.dram.rank0.prePowerDownEnergy            0                       # Energy for precharge power-down per rank (pJ) (Joule)
system.mem_ctrls.dram.rank0.selfRefreshEnergy            0                       # Energy for self refresh per rank (pJ) (Joule)
system.mem_ctrls.dram.rank0.totalEnergy    2001215340                       # Total energy per rank (pJ) (Joule)
system.mem_ctrls.dram.rank0.averagePower   521.976359                       # Core power per rank (mW) (Watt)
system.mem_ctrls.dram.rank0.totalIdleTime            0                       # Total Idle time Per DRAM Rank (Tick)
system.mem_ctrls.dram.rank0.pwrStateTime::IDLE   2346551250                       # Time in different power states (Tick)
system.mem_ctrls.dram.rank0.pwrStateTime::REF    127920000                       # Time in different power states (Tick)
system.mem_ctrls.dram.rank0.pwrStateTime::SREF            0                       # Time in different power states (Tick)
system.mem_ctrls.dram.rank0.pwrStateTime::PRE_PDN            0                       # Time in different power states (Tick)
system.mem_ctrls.dram.rank0.pwrStateTime::ACT   1359448250                       # Time in different power states (Tick)
system.mem_ctrls.dram.rank0.pwrStateTime::ACT_PDN            0                       # Time in different power states (Tick)
system.mem_ctrls.dram.rank1.actEnergy        17493000                       # Energy for activate commands per rank (pJ) (Joule)
system.mem_ctrls.dram.rank1.preEnergy         9274980                       # Energy for precharge commands per rank (pJ) (Joule)
system.mem_ctrls.dram.rank1.readEnergy      122058300                       # Energy for read commands per rank (pJ) (Joule)
system.mem_ctrls.dram.rank1.writeEnergy      76582620                       # Energy for write commands per rank (pJ) (Joule)
system.mem_ctrls.dram.rank1.refreshEnergy 302402880.000000                       # Energy for refresh commands per rank (pJ) (Joule)
system.mem_ctrls.dram.rank1.actBackEnergy    694917210                       # Energy for active background per rank (pJ) (Joule)
system.mem_ctrls.dram.rank1.preBackEnergy    887031840                       # Energy for precharge background per rank (pJ) (Joule)
system.mem_ctrls.dram.rank1.actPowerDownEnergy            0                       # Energy for active power-down per rank (pJ) (Joule)
system.mem_ctrls.dram.rank1.prePowerDownEnergy            0                       # Energy for precharge power-down per rank (pJ) (Joule)
system.mem_ctrls.dram.rank1.selfRefreshEnergy            0                       # Energy for self refresh per rank (pJ) (Joule)
system.mem_ctrls.dram.rank1.totalEnergy    2109760830                       # Total energy per rank (pJ) (Joule)
system.mem_ctrls.dram.rank1.averagePower   550.288244                       # Core power per rank (mW) (Watt)
system.mem_ctrls.dram.rank1.totalIdleTime            0                       # Total Idle time Per DRAM Rank (Tick)
system.mem_ctrls.dram.rank1.pwrStateTime::IDLE   2296740500                       # Time in different power states (Tick)
system.mem_ctrls.dram.rank1.pwrStateTime::REF    127920000                       # Time in different power states (Tick)
system.mem_ctrls.dram.rank1.pwrStateTime::SREF            0                       # Time in different power states (Tick)
system.mem_ctrls.dram.rank1.pwrStateTime::PRE_PDN            0                       # Time in different power states (Tick)
system.mem_ctrls.dram.rank1.pwrStateTime::ACT   1409259000                       # Time in different power states (Tick)
system.mem_ctrls.dram.rank1.pwrStateTime::ACT_PDN            0                       # Time in different power states (Tick)
system.mem_ctrls.power_state.pwrStateResidencyTicks::UNDEFINED   3833919500                       # Cumulative time (in ticks) in various power states (Tick)
system.membus.transDist::ReadResp               26661                       # Transaction distribution (Count)
system.membus.transDist::WritebackDirty         21270                       # Transaction distribution (Count)
system.membus.transDist::WritebackClean           727                       # Transaction distribution (Count)
system.membus.transDist::CleanEvict              8393                       # Transaction distribution (Count)
system.membus.transDist::ReadExReq               5133                       # Transaction distribution (Count)
system.membus.transDist::ReadExResp              5133                       # Transaction distribution (Count)
system.membus.transDist::ReadCleanReq            1217                       # Transaction distribution (Count)
system.membus.transDist::ReadSharedReq          25445                       # Transaction distribution (Count)
system.membus.transDist::InvalidateReq            109                       # Transaction distribution (Count)
system.membus.pktCount_system.cpu.icache.mem_side_port::system.mem_ctrls.port         3160                       # Packet count per connected requestor and responder (Count)
system.membus.pktCount_system.cpu.dcache.mem_side_port::system.mem_ctrls.port        90928                       # Packet count per connected requestor and responder (Count)
system.membus.pktCount::total                   94088                       # Packet count per connected requestor and responder (Count)
system.membus.pktSize_system.cpu.icache.mem_side_port::system.mem_ctrls.port       124352                       # Cumulative packet size per connected requestor and responder (Byte)
system.membus.pktSize_system.cpu.dcache.mem_side_port::system.mem_ctrls.port      3318272                       # Cumulative packet size per connected requestor and responder (Byte)
system.membus.pktSize::total                  3442624                       # Cumulative packet size per connected requestor and responder (Byte)
system.membus.snoops                                0                       # Total snoops (Count)
system.membus.snoopTraffic                          0                       # Total snoop traffic (Byte)
system.membus.snoopFanout::samples              31904                       # Request fanout histogram (Count)
system.membus.snoopFanout::mean              0.000031                       # Request fanout histogram (Count)
system.membus.snoopFanout::stdev             0.005599                       # Request fanout histogram (Count)
system.membus.snoopFanout::underflows               0      0.00%      0.00% # Request fanout histogram (Count)
system.membus.snoopFanout::0                    31903    100.00%    100.00% # Request fanout histogram (Count)
system.membus.snoopFanout::1                        1      0.00%    100.00% # Request fanout histogram (Count)
system.membus.snoopFanout::2                        0      0.00%    100.00% # Request fanout histogram (Count)
system.membus.snoopFanout::overflows                0      0.00%    100.00% # Request fanout histogram (Count)
system.membus.snoopFanout::min_value                0                       # Request fanout histogram (Count)
system.membus.snoopFanout::max_value                1                       # Request fanout histogram (Count)
system.membus.snoopFanout::total                31904                       # Request fanout histogram (Count)
system.membus.power_state.pwrStateResidencyTicks::UNDEFINED   3833919500                       # Cumulative time (in ticks) in various power states (Tick)
system.membus.reqLayer0.occupancy           154973000                       # Layer occupancy (ticks) (Tick)
system.membus.reqLayer0.utilization               0.0                       # Layer utilization (Ratio)
system.membus.respLayer1.occupancy            6454000                       # Layer occupancy (ticks) (Tick)
system.membus.respLayer1.utilization              0.0                       # Layer utilization (Ratio)
system.membus.respLayer2.occupancy          158410250                       # Layer occupancy (ticks) (Tick)
system.membus.respLayer2.utilization              0.0                       # Layer utilization (Ratio)
system.membus.snoop_filter.totRequests          62294                       # Total number of requests made to the snoop filter. (Count)
system.membus.snoop_filter.hitSingleRequests        30390                       # Number of requests hitting in the snoop filter with a single holder of the requested data. (Count)
system.membus.snoop_filter.hitMultiRequests            1                       # Number of requests hitting in the snoop filter with multiple (>1) holders of the requested data. (Count)
system.membus.snoop_filter.totSnoops                0                       # Total number of snoops made to the snoop filter. (Count)
system.membus.snoop_filter.hitSingleSnoops            0                       # Number of snoops hitting in the snoop filter with a single holder of the requested data. (Count)
system.membus.snoop_filter.hitMultiSnoops            0                       # Number of snoops hitting in the snoop filter with multiple (>1) holders of the requested data. (Count)
system.voltage_domain.voltage                       1                       # Voltage in Volts (Volt)
system.workload.inst.arm                            0                       # number of arm instructions executed (Count)
system.workload.inst.quiesce                        0                       # number of quiesce instructions executed (Count)

---------- End Simulation Statistics   ----------
