
---------- Begin Simulation Statistics ----------
simSeconds                                   0.000000                       # Number of seconds simulated (Second)
simTicks                                       182000                       # Number of ticks simulated (Tick)
finalTick                                      182000                       # Number of ticks from beginning of simulation (restored from checkpoints and never reset) (Tick)
simFreq                                  1000000000000                       # The number of ticks per simulated second ((Tick/Second))
hostSeconds                                      0.02                       # Real time elapsed on the host (Second)
hostTickRate                                 10691417                       # The number of ticks simulated per host second (ticks/s) ((Tick/Second))
hostMemory                                     668236                       # Number of bytes of host memory used (Byte)
simInsts                                            4                       # Number of instructions simulated (Count)
simOps                                              5                       # Number of ops (including micro ops) simulated (Count)
hostInstRate                                      234                       # Simulator instruction rate (inst/s) ((Count/Second))
hostOpRate                                        293                       # Simulator op (including micro ops) rate (op/s) ((Count/Second))
system.clk_domain.clock                          1000                       # Clock period in ticks (Tick)
system.cpu.numCycles                              183                       # Number of cpu cycles simulated (Cycle)
system.cpu.cpi                              45.750000                       # CPI: cycles per instruction (core level) ((Cycle/Count))
system.cpu.ipc                               0.021858                       # IPC: instructions per cycle (core level) ((Count/Cycle))
system.cpu.numWorkItemsStarted                      0                       # Number of work items this cpu started (Count)
system.cpu.numWorkItemsCompleted                    0                       # Number of work items this cpu completed (Count)
system.cpu.instsAdded                             101                       # Number of instructions added to the IQ (excludes non-spec) (Count)
system.cpu.instsIssued                             12                       # Number of instructions issued (Count)
system.cpu.squashedInstsExamined                   38                       # Number of squashed instructions iterated over during squash; mainly for profiling (Count)
system.cpu.squashedOperandsExamined               183                       # Number of squashed operands that are examined and possibly removed from graph (Count)
system.cpu.numIssuedDist::samples                  50                       # Number of insts issued each cycle (Count)
system.cpu.numIssuedDist::mean               0.240000                       # Number of insts issued each cycle (Count)
system.cpu.numIssuedDist::stdev              0.938083                       # Number of insts issued each cycle (Count)
system.cpu.numIssuedDist::underflows                0      0.00%      0.00% # Number of insts issued each cycle (Count)
system.cpu.numIssuedDist::0                        46     92.00%     92.00% # Number of insts issued each cycle (Count)
system.cpu.numIssuedDist::1                         1      2.00%     94.00% # Number of insts issued each cycle (Count)
system.cpu.numIssuedDist::2                         1      2.00%     96.00% # Number of insts issued each cycle (Count)
system.cpu.numIssuedDist::3                         0      0.00%     96.00% # Number of insts issued each cycle (Count)
system.cpu.numIssuedDist::4                         1      2.00%     98.00% # Number of insts issued each cycle (Count)
system.cpu.numIssuedDist::5                         1      2.00%    100.00% # Number of insts issued each cycle (Count)
system.cpu.numIssuedDist::6                         0      0.00%    100.00% # Number of insts issued each cycle (Count)
system.cpu.numIssuedDist::7                         0      0.00%    100.00% # Number of insts issued each cycle (Count)
system.cpu.numIssuedDist::8                         0      0.00%    100.00% # Number of insts issued each cycle (Count)
system.cpu.numIssuedDist::9                         0      0.00%    100.00% # Number of insts issued each cycle (Count)
system.cpu.numIssuedDist::10                        0      0.00%    100.00% # Number of insts issued each cycle (Count)
system.cpu.numIssuedDist::11                        0      0.00%    100.00% # Number of insts issued each cycle (Count)
system.cpu.numIssuedDist::12                        0      0.00%    100.00% # Number of insts issued each cycle (Count)
system.cpu.numIssuedDist::13                        0      0.00%    100.00% # Number of insts issued each cycle (Count)
system.cpu.numIssuedDist::14                        0      0.00%    100.00% # Number of insts issued each cycle (Count)
system.cpu.numIssuedDist::15                        0      0.00%    100.00% # Number of insts issued each cycle (Count)
system.cpu.numIssuedDist::16                        0      0.00%    100.00% # Number of insts issued each cycle (Count)
system.cpu.numIssuedDist::17                        0      0.00%    100.00% # Number of insts issued each cycle (Count)
system.cpu.numIssuedDist::18                        0      0.00%    100.00% # Number of insts issued each cycle (Count)
system.cpu.numIssuedDist::19                        0      0.00%    100.00% # Number of insts issued each cycle (Count)
system.cpu.numIssuedDist::overflows                 0      0.00%    100.00% # Number of insts issued each cycle (Count)
system.cpu.numIssuedDist::min_value                 0                       # Number of insts issued each cycle (Count)
system.cpu.numIssuedDist::max_value                 5                       # Number of insts issued each cycle (Count)
system.cpu.numIssuedDist::total                    50                       # Number of insts issued each cycle (Count)
system.cpu.statFuBusy::No_OpClass                   0                       # attempts to use FU when none available (Count)
system.cpu.statFuBusy::IntAlu                       0                       # attempts to use FU when none available (Count)
system.cpu.statFuBusy::IntMult                      0                       # attempts to use FU when none available (Count)
system.cpu.statFuBusy::IntDiv                       0                       # attempts to use FU when none available (Count)
system.cpu.statFuBusy::FloatAdd                     0                       # attempts to use FU when none available (Count)
system.cpu.statFuBusy::FloatCmp                     0                       # attempts to use FU when none available (Count)
system.cpu.statFuBusy::FloatCvt                     0                       # attempts to use FU when none available (Count)
system.cpu.statFuBusy::FloatMult                    0                       # attempts to use FU when none available (Count)
system.cpu.statFuBusy::FloatMultAcc                 0                       # attempts to use FU when none available (Count)
system.cpu.statFuBusy::FloatDiv                     0                       # attempts to use FU when none available (Count)
system.cpu.statFuBusy::FloatMisc                    0                       # attempts to use FU when none available (Count)
system.cpu.statFuBusy::FloatSqrt                    0                       # attempts to use FU when none available (Count)
system.cpu.statFuBusy::SimdAdd                      0                       # attempts to use FU when none available (Count)
system.cpu.statFuBusy::SimdAddAcc                   0                       # attempts to use FU when none available (Count)
system.cpu.statFuBusy::SimdAlu                      0                       # attempts to use FU when none available (Count)
system.cpu.statFuBusy::SimdCmp                      0                       # attempts to use FU when none available (Count)
system.cpu.statFuBusy::SimdCvt                      0                       # attempts to use FU when none available (Count)
system.cpu.statFuBusy::SimdMisc                     0                       # attempts to use FU when none available (Count)
system.cpu.statFuBusy::SimdMult                     0                       # attempts to use FU when none available (Count)
system.cpu.statFuBusy::SimdMultAcc                  0                       # attempts to use FU when none available (Count)
system.cpu.statFuBusy::SimdMatMultAcc               0                       # attempts to use FU when none available (Count)
system.cpu.statFuBusy::SimdShift                    0                       # attempts to use FU when none available (Count)
system.cpu.statFuBusy::SimdShiftAcc                 0                       # attempts to use FU when none available (Count)
system.cpu.statFuBusy::SimdDiv                      0                       # attempts to use FU when none available (Count)
system.cpu.statFuBusy::SimdSqrt                     0                       # attempts to use FU when none available (Count)
system.cpu.statFuBusy::SimdFloatAdd                 0                       # attempts to use FU when none available (Count)
system.cpu.statFuBusy::SimdFloatAlu                 0                       # attempts to use FU when none available (Count)
system.cpu.statFuBusy::SimdFloatCmp                 0                       # attempts to use FU when none available (Count)
system.cpu.statFuBusy::SimdFloatCvt                 0                       # attempts to use FU when none available (Count)
system.cpu.statFuBusy::SimdFloatDiv                 0                       # attempts to use FU when none available (Count)
system.cpu.statFuBusy::SimdFloatMisc                0                       # attempts to use FU when none available (Count)
system.cpu.statFuBusy::SimdFloatMult                0                       # attempts to use FU when none available (Count)
system.cpu.statFuBusy::SimdFloatMultAcc             0                       # attempts to use FU when none available (Count)
system.cpu.statFuBusy::SimdFloatMatMultAcc            0                       # attempts to use FU when none available (Count)
system.cpu.statFuBusy::SimdFloatSqrt                0                       # attempts to use FU when none available (Count)
system.cpu.statFuBusy::SimdReduceAdd                0                       # attempts to use FU when none available (Count)
system.cpu.statFuBusy::SimdReduceAlu                0                       # attempts to use FU when none available (Count)
system.cpu.statFuBusy::SimdReduceCmp                0                       # attempts to use FU when none available (Count)
system.cpu.statFuBusy::SimdFloatReduceAdd            0                       # attempts to use FU when none available (Count)
system.cpu.statFuBusy::SimdFloatReduceCmp            0                       # attempts to use FU when none available (Count)
system.cpu.statFuBusy::SimdAes                      0                       # attempts to use FU when none available (Count)
system.cpu.statFuBusy::SimdAesMix                   0                       # attempts to use FU when none available (Count)
system.cpu.statFuBusy::SimdSha1Hash                 0                       # attempts to use FU when none available (Count)
system.cpu.statFuBusy::SimdSha1Hash2                0                       # attempts to use FU when none available (Count)
system.cpu.statFuBusy::SimdSha256Hash               0                       # attempts to use FU when none available (Count)
system.cpu.statFuBusy::SimdSha256Hash2              0                       # attempts to use FU when none available (Count)
system.cpu.statFuBusy::SimdShaSigma2                0                       # attempts to use FU when none available (Count)
system.cpu.statFuBusy::SimdShaSigma3                0                       # attempts to use FU when none available (Count)
system.cpu.statFuBusy::SimdPredAlu                  0                       # attempts to use FU when none available (Count)
system.cpu.statFuBusy::Matrix                       0                       # attempts to use FU when none available (Count)
system.cpu.statFuBusy::MatrixMov                    0                       # attempts to use FU when none available (Count)
system.cpu.statFuBusy::MatrixOP                     0                       # attempts to use FU when none available (Count)
system.cpu.statFuBusy::MemRead                      0                       # attempts to use FU when none available (Count)
system.cpu.statFuBusy::MemWrite                     0                       # attempts to use FU when none available (Count)
system.cpu.statFuBusy::FloatMemRead                 0                       # attempts to use FU when none available (Count)
system.cpu.statFuBusy::FloatMemWrite                0                       # attempts to use FU when none available (Count)
system.cpu.statFuBusy::IprAccess                    0                       # attempts to use FU when none available (Count)
system.cpu.statFuBusy::InstPrefetch                 0                       # attempts to use FU when none available (Count)
system.cpu.statFuBusy::SimdUnitStrideLoad            0                       # attempts to use FU when none available (Count)
system.cpu.statFuBusy::SimdUnitStrideStore            0                       # attempts to use FU when none available (Count)
system.cpu.statFuBusy::SimdUnitStrideMaskLoad            0                       # attempts to use FU when none available (Count)
system.cpu.statFuBusy::SimdUnitStrideMaskStore            0                       # attempts to use FU when none available (Count)
system.cpu.statFuBusy::SimdStridedLoad              0                       # attempts to use FU when none available (Count)
system.cpu.statFuBusy::SimdStridedStore             0                       # attempts to use FU when none available (Count)
system.cpu.statFuBusy::SimdIndexedLoad              0                       # attempts to use FU when none available (Count)
system.cpu.statFuBusy::SimdIndexedStore             0                       # attempts to use FU when none available (Count)
system.cpu.statFuBusy::SimdWholeRegisterLoad            0                       # attempts to use FU when none available (Count)
system.cpu.statFuBusy::SimdWholeRegisterStore            0                       # attempts to use FU when none available (Count)
system.cpu.statFuBusy::SimdUnitStrideFaultOnlyFirstLoad            0                       # attempts to use FU when none available (Count)
system.cpu.statFuBusy::SimdUnitStrideSegmentedLoad            0                       # attempts to use FU when none available (Count)
system.cpu.statFuBusy::SimdUnitStrideSegmentedStore            0                       # attempts to use FU when none available (Count)
system.cpu.statFuBusy::SimdExt                      0                       # attempts to use FU when none available (Count)
system.cpu.statFuBusy::SimdFloatExt                 0                       # attempts to use FU when none available (Count)
system.cpu.statFuBusy::SimdConfig                   0                       # attempts to use FU when none available (Count)
system.cpu.statIssuedInstType_0::No_OpClass            0      0.00%      0.00% # Number of instructions issued per FU type, per thread (Count)
system.cpu.statIssuedInstType_0::IntAlu             7     58.33%     58.33% # Number of instructions issued per FU type, per thread (Count)
system.cpu.statIssuedInstType_0::IntMult            0      0.00%     58.33% # Number of instructions issued per FU type, per thread (Count)
system.cpu.statIssuedInstType_0::IntDiv             0      0.00%     58.33% # Number of instructions issued per FU type, per thread (Count)
system.cpu.statIssuedInstType_0::FloatAdd            0      0.00%     58.33% # Number of instructions issued per FU type, per thread (Count)
system.cpu.statIssuedInstType_0::FloatCmp            0      0.00%     58.33% # Number of instructions issued per FU type, per thread (Count)
system.cpu.statIssuedInstType_0::FloatCvt            0      0.00%     58.33% # Number of instructions issued per FU type, per thread (Count)
system.cpu.statIssuedInstType_0::FloatMult            0      0.00%     58.33% # Number of instructions issued per FU type, per thread (Count)
system.cpu.statIssuedInstType_0::FloatMultAcc            0      0.00%     58.33% # Number of instructions issued per FU type, per thread (Count)
system.cpu.statIssuedInstType_0::FloatDiv            0      0.00%     58.33% # Number of instructions issued per FU type, per thread (Count)
system.cpu.statIssuedInstType_0::FloatMisc            0      0.00%     58.33% # Number of instructions issued per FU type, per thread (Count)
system.cpu.statIssuedInstType_0::FloatSqrt            0      0.00%     58.33% # Number of instructions issued per FU type, per thread (Count)
system.cpu.statIssuedInstType_0::SimdAdd            0      0.00%     58.33% # Number of instructions issued per FU type, per thread (Count)
system.cpu.statIssuedInstType_0::SimdAddAcc            0      0.00%     58.33% # Number of instructions issued per FU type, per thread (Count)
system.cpu.statIssuedInstType_0::SimdAlu            0      0.00%     58.33% # Number of instructions issued per FU type, per thread (Count)
system.cpu.statIssuedInstType_0::SimdCmp            0      0.00%     58.33% # Number of instructions issued per FU type, per thread (Count)
system.cpu.statIssuedInstType_0::SimdCvt            0      0.00%     58.33% # Number of instructions issued per FU type, per thread (Count)
system.cpu.statIssuedInstType_0::SimdMisc            0      0.00%     58.33% # Number of instructions issued per FU type, per thread (Count)
system.cpu.statIssuedInstType_0::SimdMult            0      0.00%     58.33% # Number of instructions issued per FU type, per thread (Count)
system.cpu.statIssuedInstType_0::SimdMultAcc            0      0.00%     58.33% # Number of instructions issued per FU type, per thread (Count)
system.cpu.statIssuedInstType_0::SimdMatMultAcc            0      0.00%     58.33% # Number of instructions issued per FU type, per thread (Count)
system.cpu.statIssuedInstType_0::SimdShift            0      0.00%     58.33% # Number of instructions issued per FU type, per thread (Count)
system.cpu.statIssuedInstType_0::SimdShiftAcc            0      0.00%     58.33% # Number of instructions issued per FU type, per thread (Count)
system.cpu.statIssuedInstType_0::SimdDiv            0      0.00%     58.33% # Number of instructions issued per FU type, per thread (Count)
system.cpu.statIssuedInstType_0::SimdSqrt            0      0.00%     58.33% # Number of instructions issued per FU type, per thread (Count)
system.cpu.statIssuedInstType_0::SimdFloatAdd            0      0.00%     58.33% # Number of instructions issued per FU type, per thread (Count)
system.cpu.statIssuedInstType_0::SimdFloatAlu            0      0.00%     58.33% # Number of instructions issued per FU type, per thread (Count)
system.cpu.statIssuedInstType_0::SimdFloatCmp            0      0.00%     58.33% # Number of instructions issued per FU type, per thread (Count)
system.cpu.statIssuedInstType_0::SimdFloatCvt            0      0.00%     58.33% # Number of instructions issued per FU type, per thread (Count)
system.cpu.statIssuedInstType_0::SimdFloatDiv            0      0.00%     58.33% # Number of instructions issued per FU type, per thread (Count)
system.cpu.statIssuedInstType_0::SimdFloatMisc            0      0.00%     58.33% # Number of instructions issued per FU type, per thread (Count)
system.cpu.statIssuedInstType_0::SimdFloatMult            0      0.00%     58.33% # Number of instructions issued per FU type, per thread (Count)
system.cpu.statIssuedInstType_0::SimdFloatMultAcc            0      0.00%     58.33% # Number of instructions issued per FU type, per thread (Count)
system.cpu.statIssuedInstType_0::SimdFloatMatMultAcc            0      0.00%     58.33% # Number of instructions issued per FU type, per thread (Count)
system.cpu.statIssuedInstType_0::SimdFloatSqrt            0      0.00%     58.33% # Number of instructions issued per FU type, per thread (Count)
system.cpu.statIssuedInstType_0::SimdReduceAdd            0      0.00%     58.33% # Number of instructions issued per FU type, per thread (Count)
system.cpu.statIssuedInstType_0::SimdReduceAlu            0      0.00%     58.33% # Number of instructions issued per FU type, per thread (Count)
system.cpu.statIssuedInstType_0::SimdReduceCmp            0      0.00%     58.33% # Number of instructions issued per FU type, per thread (Count)
system.cpu.statIssuedInstType_0::SimdFloatReduceAdd            0      0.00%     58.33% # Number of instructions issued per FU type, per thread (Count)
system.cpu.statIssuedInstType_0::SimdFloatReduceCmp            0      0.00%     58.33% # Number of instructions issued per FU type, per thread (Count)
system.cpu.statIssuedInstType_0::SimdAes            0      0.00%     58.33% # Number of instructions issued per FU type, per thread (Count)
system.cpu.statIssuedInstType_0::SimdAesMix            0      0.00%     58.33% # Number of instructions issued per FU type, per thread (Count)
system.cpu.statIssuedInstType_0::SimdSha1Hash            0      0.00%     58.33% # Number of instructions issued per FU type, per thread (Count)
system.cpu.statIssuedInstType_0::SimdSha1Hash2            0      0.00%     58.33% # Number of instructions issued per FU type, per thread (Count)
system.cpu.statIssuedInstType_0::SimdSha256Hash            0      0.00%     58.33% # Number of instructions issued per FU type, per thread (Count)
system.cpu.statIssuedInstType_0::SimdSha256Hash2            0      0.00%     58.33% # Number of instructions issued per FU type, per thread (Count)
system.cpu.statIssuedInstType_0::SimdShaSigma2            0      0.00%     58.33% # Number of instructions issued per FU type, per thread (Count)
system.cpu.statIssuedInstType_0::SimdShaSigma3            0      0.00%     58.33% # Number of instructions issued per FU type, per thread (Count)
system.cpu.statIssuedInstType_0::SimdPredAlu            0      0.00%     58.33% # Number of instructions issued per FU type, per thread (Count)
system.cpu.statIssuedInstType_0::Matrix             0      0.00%     58.33% # Number of instructions issued per FU type, per thread (Count)
system.cpu.statIssuedInstType_0::MatrixMov            0      0.00%     58.33% # Number of instructions issued per FU type, per thread (Count)
system.cpu.statIssuedInstType_0::MatrixOP            0      0.00%     58.33% # Number of instructions issued per FU type, per thread (Count)
system.cpu.statIssuedInstType_0::MemRead            4     33.33%     91.67% # Number of instructions issued per FU type, per thread (Count)
system.cpu.statIssuedInstType_0::MemWrite            1      8.33%    100.00% # Number of instructions issued per FU type, per thread (Count)
system.cpu.statIssuedInstType_0::FloatMemRead            0      0.00%    100.00% # Number of instructions issued per FU type, per thread (Count)
system.cpu.statIssuedInstType_0::FloatMemWrite            0      0.00%    100.00% # Number of instructions issued per FU type, per thread (Count)
system.cpu.statIssuedInstType_0::IprAccess            0      0.00%    100.00% # Number of instructions issued per FU type, per thread (Count)
system.cpu.statIssuedInstType_0::InstPrefetch            0      0.00%    100.00% # Number of instructions issued per FU type, per thread (Count)
system.cpu.statIssuedInstType_0::SimdUnitStrideLoad            0      0.00%    100.00% # Number of instructions issued per FU type, per thread (Count)
system.cpu.statIssuedInstType_0::SimdUnitStrideStore            0      0.00%    100.00% # Number of instructions issued per FU type, per thread (Count)
system.cpu.statIssuedInstType_0::SimdUnitStrideMaskLoad            0      0.00%    100.00% # Number of instructions issued per FU type, per thread (Count)
system.cpu.statIssuedInstType_0::SimdUnitStrideMaskStore            0      0.00%    100.00% # Number of instructions issued per FU type, per thread (Count)
system.cpu.statIssuedInstType_0::SimdStridedLoad            0      0.00%    100.00% # Number of instructions issued per FU type, per thread (Count)
system.cpu.statIssuedInstType_0::SimdStridedStore            0      0.00%    100.00% # Number of instructions issued per FU type, per thread (Count)
system.cpu.statIssuedInstType_0::SimdIndexedLoad            0      0.00%    100.00% # Number of instructions issued per FU type, per thread (Count)
system.cpu.statIssuedInstType_0::SimdIndexedStore            0      0.00%    100.00% # Number of instructions issued per FU type, per thread (Count)
system.cpu.statIssuedInstType_0::SimdWholeRegisterLoad            0      0.00%    100.00% # Number of instructions issued per FU type, per thread (Count)
system.cpu.statIssuedInstType_0::SimdWholeRegisterStore            0      0.00%    100.00% # Number of instructions issued per FU type, per thread (Count)
system.cpu.statIssuedInstType_0::SimdUnitStrideFaultOnlyFirstLoad            0      0.00%    100.00% # Number of instructions issued per FU type, per thread (Count)
system.cpu.statIssuedInstType_0::SimdUnitStrideSegmentedLoad            0      0.00%    100.00% # Number of instructions issued per FU type, per thread (Count)
system.cpu.statIssuedInstType_0::SimdUnitStrideSegmentedStore            0      0.00%    100.00% # Number of instructions issued per FU type, per thread (Count)
system.cpu.statIssuedInstType_0::SimdExt            0      0.00%    100.00% # Number of instructions issued per FU type, per thread (Count)
system.cpu.statIssuedInstType_0::SimdFloatExt            0      0.00%    100.00% # Number of instructions issued per FU type, per thread (Count)
system.cpu.statIssuedInstType_0::SimdConfig            0      0.00%    100.00% # Number of instructions issued per FU type, per thread (Count)
system.cpu.statIssuedInstType_0::total             12                       # Number of instructions issued per FU type, per thread (Count)
system.cpu.issueRate                         0.065574                       # Inst issue rate ((Count/Cycle))
system.cpu.fuBusy                                   0                       # FU busy when requested (Count)
system.cpu.fuBusyRate                               0                       # FU busy rate (busy events/executed inst) ((Count/Count))
system.cpu.intInstQueueReads                       74                       # Number of integer instruction queue reads (Count)
system.cpu.intInstQueueWrites                     140                       # Number of integer instruction queue writes (Count)
system.cpu.intInstQueueWakeupAccesses               7                       # Number of integer instruction queue wakeup accesses (Count)
system.cpu.fpInstQueueReads                         0                       # Number of floating instruction queue reads (Count)
system.cpu.fpInstQueueWrites                        0                       # Number of floating instruction queue writes (Count)
system.cpu.fpInstQueueWakeupAccesses                0                       # Number of floating instruction queue wakeup accesses (Count)
system.cpu.vecInstQueueReads                        0                       # Number of vector instruction queue reads (Count)
system.cpu.vecInstQueueWrites                       0                       # Number of vector instruction queue writes (Count)
system.cpu.vecInstQueueWakeupAccesses               0                       # Number of vector instruction queue wakeup accesses (Count)
system.cpu.intAluAccesses                          12                       # Number of integer alu accesses (Count)
system.cpu.fpAluAccesses                            0                       # Number of floating point alu accesses (Count)
system.cpu.vecAluAccesses                           0                       # Number of vector alu accesses (Count)
system.cpu.numSquashedInsts                         0                       # Number of squashed instructions skipped in execute (Count)
system.cpu.numSwp                                   0                       # Number of swp insts executed (Count)
system.cpu.timesIdled                               2                       # Number of times that the entire CPU went into an idle state and unscheduled itself (Count)
system.cpu.idleCycles                             133                       # Total number of cycles that the CPU has spent unscheduled due to idling (Cycle)
system.cpu.MemDepUnit__0.insertedLoads             33                       # Number of loads inserted to the mem dependence unit. (Count)
system.cpu.MemDepUnit__0.insertedStores            31                       # Number of stores inserted to the mem dependence unit. (Count)
system.cpu.MemDepUnit__0.conflictingLoads            0                       # Number of conflicting loads. (Count)
system.cpu.MemDepUnit__0.conflictingStores            0                       # Number of conflicting stores. (Count)
system.cpu.MemDepUnit__0.falseDependencies            0                       # Number of times load's address didn't match predicted store's address (Count)
system.cpu.MemDepUnit__0.correctPredictions            0                       # Number of times load's address did match predicted store's address (Count)
system.cpu.MemDepUnit__0.LFSTReads                  0                       # Number of LFST reads. (Count)
system.cpu.MemDepUnit__0.LFSTWrites                 0                       # Number of LFST writes. (Count)
system.cpu.MemDepUnit__0.readsPath1                 0                       # Number of reads to path table 1. (Count)
system.cpu.MemDepUnit__0.readsPath2                 0                       # Number of reads to path table 2. (Count)
system.cpu.MemDepUnit__0.readsPath3                 0                       # Number of reads to path table 3. (Count)
system.cpu.MemDepUnit__0.readsPath4                 0                       # Number of reads to path table 4. (Count)
system.cpu.MemDepUnit__0.readsPath5                 0                       # Number of reads to path table 5. (Count)
system.cpu.MemDepUnit__0.readsPath6                 0                       # Number of reads to path table 6. (Count)
system.cpu.MemDepUnit__0.readsPath7                 0                       # Number of reads to path table 7. (Count)
system.cpu.MemDepUnit__0.readsPath8                 0                       # Number of reads to path table 8. (Count)
system.cpu.MemDepUnit__0.writesPath1                0                       # Number of writes to path table 1. (Count)
system.cpu.MemDepUnit__0.writesPath2                0                       # Number of writes to path table 2. (Count)
system.cpu.MemDepUnit__0.writesPath3                0                       # Number of writes to path table 3. (Count)
system.cpu.MemDepUnit__0.writesPath4                0                       # Number of writes to path table 4. (Count)
system.cpu.MemDepUnit__0.writesPath5                0                       # Number of writes to path table 5. (Count)
system.cpu.MemDepUnit__0.writesPath6                0                       # Number of writes to path table 6. (Count)
system.cpu.MemDepUnit__0.writesPath7                0                       # Number of writes to path table 7. (Count)
system.cpu.MemDepUnit__0.writesPath8                0                       # Number of writes to path table 8. (Count)
system.cpu.MemDepUnit__1.insertedLoads              0                       # Number of loads inserted to the mem dependence unit. (Count)
system.cpu.MemDepUnit__1.insertedStores             0                       # Number of stores inserted to the mem dependence unit. (Count)
system.cpu.MemDepUnit__1.conflictingLoads            0                       # Number of conflicting loads. (Count)
system.cpu.MemDepUnit__1.conflictingStores            0                       # Number of conflicting stores. (Count)
system.cpu.MemDepUnit__1.falseDependencies            0                       # Number of times load's address didn't match predicted store's address (Count)
system.cpu.MemDepUnit__1.correctPredictions            0                       # Number of times load's address did match predicted store's address (Count)
system.cpu.MemDepUnit__1.LFSTReads                  0                       # Number of LFST reads. (Count)
system.cpu.MemDepUnit__1.LFSTWrites                 0                       # Number of LFST writes. (Count)
system.cpu.MemDepUnit__1.readsPath1                 0                       # Number of reads to path table 1. (Count)
system.cpu.MemDepUnit__1.readsPath2                 0                       # Number of reads to path table 2. (Count)
system.cpu.MemDepUnit__1.readsPath3                 0                       # Number of reads to path table 3. (Count)
system.cpu.MemDepUnit__1.readsPath4                 0                       # Number of reads to path table 4. (Count)
system.cpu.MemDepUnit__1.readsPath5                 0                       # Number of reads to path table 5. (Count)
system.cpu.MemDepUnit__1.readsPath6                 0                       # Number of reads to path table 6. (Count)
system.cpu.MemDepUnit__1.readsPath7                 0                       # Number of reads to path table 7. (Count)
system.cpu.MemDepUnit__1.readsPath8                 0                       # Number of reads to path table 8. (Count)
system.cpu.MemDepUnit__1.writesPath1                0                       # Number of writes to path table 1. (Count)
system.cpu.MemDepUnit__1.writesPath2                0                       # Number of writes to path table 2. (Count)
system.cpu.MemDepUnit__1.writesPath3                0                       # Number of writes to path table 3. (Count)
system.cpu.MemDepUnit__1.writesPath4                0                       # Number of writes to path table 4. (Count)
system.cpu.MemDepUnit__1.writesPath5                0                       # Number of writes to path table 5. (Count)
system.cpu.MemDepUnit__1.writesPath6                0                       # Number of writes to path table 6. (Count)
system.cpu.MemDepUnit__1.writesPath7                0                       # Number of writes to path table 7. (Count)
system.cpu.MemDepUnit__1.writesPath8                0                       # Number of writes to path table 8. (Count)
system.cpu.MemDepUnit__2.insertedLoads              0                       # Number of loads inserted to the mem dependence unit. (Count)
system.cpu.MemDepUnit__2.insertedStores             0                       # Number of stores inserted to the mem dependence unit. (Count)
system.cpu.MemDepUnit__2.conflictingLoads            0                       # Number of conflicting loads. (Count)
system.cpu.MemDepUnit__2.conflictingStores            0                       # Number of conflicting stores. (Count)
system.cpu.MemDepUnit__2.falseDependencies            0                       # Number of times load's address didn't match predicted store's address (Count)
system.cpu.MemDepUnit__2.correctPredictions            0                       # Number of times load's address did match predicted store's address (Count)
system.cpu.MemDepUnit__2.LFSTReads                  0                       # Number of LFST reads. (Count)
system.cpu.MemDepUnit__2.LFSTWrites                 0                       # Number of LFST writes. (Count)
system.cpu.MemDepUnit__2.readsPath1                 0                       # Number of reads to path table 1. (Count)
system.cpu.MemDepUnit__2.readsPath2                 0                       # Number of reads to path table 2. (Count)
system.cpu.MemDepUnit__2.readsPath3                 0                       # Number of reads to path table 3. (Count)
system.cpu.MemDepUnit__2.readsPath4                 0                       # Number of reads to path table 4. (Count)
system.cpu.MemDepUnit__2.readsPath5                 0                       # Number of reads to path table 5. (Count)
system.cpu.MemDepUnit__2.readsPath6                 0                       # Number of reads to path table 6. (Count)
system.cpu.MemDepUnit__2.readsPath7                 0                       # Number of reads to path table 7. (Count)
system.cpu.MemDepUnit__2.readsPath8                 0                       # Number of reads to path table 8. (Count)
system.cpu.MemDepUnit__2.writesPath1                0                       # Number of writes to path table 1. (Count)
system.cpu.MemDepUnit__2.writesPath2                0                       # Number of writes to path table 2. (Count)
system.cpu.MemDepUnit__2.writesPath3                0                       # Number of writes to path table 3. (Count)
system.cpu.MemDepUnit__2.writesPath4                0                       # Number of writes to path table 4. (Count)
system.cpu.MemDepUnit__2.writesPath5                0                       # Number of writes to path table 5. (Count)
system.cpu.MemDepUnit__2.writesPath6                0                       # Number of writes to path table 6. (Count)
system.cpu.MemDepUnit__2.writesPath7                0                       # Number of writes to path table 7. (Count)
system.cpu.MemDepUnit__2.writesPath8                0                       # Number of writes to path table 8. (Count)
system.cpu.MemDepUnit__3.insertedLoads              0                       # Number of loads inserted to the mem dependence unit. (Count)
system.cpu.MemDepUnit__3.insertedStores             0                       # Number of stores inserted to the mem dependence unit. (Count)
system.cpu.MemDepUnit__3.conflictingLoads            0                       # Number of conflicting loads. (Count)
system.cpu.MemDepUnit__3.conflictingStores            0                       # Number of conflicting stores. (Count)
system.cpu.MemDepUnit__3.falseDependencies            0                       # Number of times load's address didn't match predicted store's address (Count)
system.cpu.MemDepUnit__3.correctPredictions            0                       # Number of times load's address did match predicted store's address (Count)
system.cpu.MemDepUnit__3.LFSTReads                  0                       # Number of LFST reads. (Count)
system.cpu.MemDepUnit__3.LFSTWrites                 0                       # Number of LFST writes. (Count)
system.cpu.MemDepUnit__3.readsPath1                 0                       # Number of reads to path table 1. (Count)
system.cpu.MemDepUnit__3.readsPath2                 0                       # Number of reads to path table 2. (Count)
system.cpu.MemDepUnit__3.readsPath3                 0                       # Number of reads to path table 3. (Count)
system.cpu.MemDepUnit__3.readsPath4                 0                       # Number of reads to path table 4. (Count)
system.cpu.MemDepUnit__3.readsPath5                 0                       # Number of reads to path table 5. (Count)
system.cpu.MemDepUnit__3.readsPath6                 0                       # Number of reads to path table 6. (Count)
system.cpu.MemDepUnit__3.readsPath7                 0                       # Number of reads to path table 7. (Count)
system.cpu.MemDepUnit__3.readsPath8                 0                       # Number of reads to path table 8. (Count)
system.cpu.MemDepUnit__3.writesPath1                0                       # Number of writes to path table 1. (Count)
system.cpu.MemDepUnit__3.writesPath2                0                       # Number of writes to path table 2. (Count)
system.cpu.MemDepUnit__3.writesPath3                0                       # Number of writes to path table 3. (Count)
system.cpu.MemDepUnit__3.writesPath4                0                       # Number of writes to path table 4. (Count)
system.cpu.MemDepUnit__3.writesPath5                0                       # Number of writes to path table 5. (Count)
system.cpu.MemDepUnit__3.writesPath6                0                       # Number of writes to path table 6. (Count)
system.cpu.MemDepUnit__3.writesPath7                0                       # Number of writes to path table 7. (Count)
system.cpu.MemDepUnit__3.writesPath8                0                       # Number of writes to path table 8. (Count)
system.cpu.branchPred.lookups_0::NoBranch            0                       # Number of BP lookups (Count)
system.cpu.branchPred.lookups_0::Return             0                       # Number of BP lookups (Count)
system.cpu.branchPred.lookups_0::CallDirect            0                       # Number of BP lookups (Count)
system.cpu.branchPred.lookups_0::CallIndirect            0                       # Number of BP lookups (Count)
system.cpu.branchPred.lookups_0::DirectCond            0                       # Number of BP lookups (Count)
system.cpu.branchPred.lookups_0::DirectUncond            0                       # Number of BP lookups (Count)
system.cpu.branchPred.lookups_0::IndirectCond            0                       # Number of BP lookups (Count)
system.cpu.branchPred.lookups_0::IndirectUncond            0                       # Number of BP lookups (Count)
system.cpu.branchPred.lookups_0::total              0                       # Number of BP lookups (Count)
system.cpu.branchPred.squashes_0::NoBranch            0                       # Number of branches that got squashed (completely removed) as an earlier branch was mispredicted. (Count)
system.cpu.branchPred.squashes_0::Return            0                       # Number of branches that got squashed (completely removed) as an earlier branch was mispredicted. (Count)
system.cpu.branchPred.squashes_0::CallDirect            0                       # Number of branches that got squashed (completely removed) as an earlier branch was mispredicted. (Count)
system.cpu.branchPred.squashes_0::CallIndirect            0                       # Number of branches that got squashed (completely removed) as an earlier branch was mispredicted. (Count)
system.cpu.branchPred.squashes_0::DirectCond            0                       # Number of branches that got squashed (completely removed) as an earlier branch was mispredicted. (Count)
system.cpu.branchPred.squashes_0::DirectUncond            0                       # Number of branches that got squashed (completely removed) as an earlier branch was mispredicted. (Count)
system.cpu.branchPred.squashes_0::IndirectCond            0                       # Number of branches that got squashed (completely removed) as an earlier branch was mispredicted. (Count)
system.cpu.branchPred.squashes_0::IndirectUncond            0                       # Number of branches that got squashed (completely removed) as an earlier branch was mispredicted. (Count)
system.cpu.branchPred.squashes_0::total             0                       # Number of branches that got squashed (completely removed) as an earlier branch was mispredicted. (Count)
system.cpu.branchPred.corrected_0::NoBranch            0                       # Number of branches that got corrected but not yet commited. Branches get corrected by decode or after execute. Also a branch misprediction can be detected out-of-order. Therefore, a corrected branch might not end up beeing committed in case an even earlier branch was mispredicted (Count)
system.cpu.branchPred.corrected_0::Return            0                       # Number of branches that got corrected but not yet commited. Branches get corrected by decode or after execute. Also a branch misprediction can be detected out-of-order. Therefore, a corrected branch might not end up beeing committed in case an even earlier branch was mispredicted (Count)
system.cpu.branchPred.corrected_0::CallDirect            0                       # Number of branches that got corrected but not yet commited. Branches get corrected by decode or after execute. Also a branch misprediction can be detected out-of-order. Therefore, a corrected branch might not end up beeing committed in case an even earlier branch was mispredicted (Count)
system.cpu.branchPred.corrected_0::CallIndirect            0                       # Number of branches that got corrected but not yet commited. Branches get corrected by decode or after execute. Also a branch misprediction can be detected out-of-order. Therefore, a corrected branch might not end up beeing committed in case an even earlier branch was mispredicted (Count)
system.cpu.branchPred.corrected_0::DirectCond            0                       # Number of branches that got corrected but not yet commited. Branches get corrected by decode or after execute. Also a branch misprediction can be detected out-of-order. Therefore, a corrected branch might not end up beeing committed in case an even earlier branch was mispredicted (Count)
system.cpu.branchPred.corrected_0::DirectUncond            0                       # Number of branches that got corrected but not yet commited. Branches get corrected by decode or after execute. Also a branch misprediction can be detected out-of-order. Therefore, a corrected branch might not end up beeing committed in case an even earlier branch was mispredicted (Count)
system.cpu.branchPred.corrected_0::IndirectCond            0                       # Number of branches that got corrected but not yet commited. Branches get corrected by decode or after execute. Also a branch misprediction can be detected out-of-order. Therefore, a corrected branch might not end up beeing committed in case an even earlier branch was mispredicted (Count)
system.cpu.branchPred.corrected_0::IndirectUncond            0                       # Number of branches that got corrected but not yet commited. Branches get corrected by decode or after execute. Also a branch misprediction can be detected out-of-order. Therefore, a corrected branch might not end up beeing committed in case an even earlier branch was mispredicted (Count)
system.cpu.branchPred.corrected_0::total            0                       # Number of branches that got corrected but not yet commited. Branches get corrected by decode or after execute. Also a branch misprediction can be detected out-of-order. Therefore, a corrected branch might not end up beeing committed in case an even earlier branch was mispredicted (Count)
system.cpu.branchPred.earlyResteers_0::NoBranch            0                       # Number of branches that got redirected after decode. (Count)
system.cpu.branchPred.earlyResteers_0::Return            0                       # Number of branches that got redirected after decode. (Count)
system.cpu.branchPred.earlyResteers_0::CallDirect            0                       # Number of branches that got redirected after decode. (Count)
system.cpu.branchPred.earlyResteers_0::CallIndirect            0                       # Number of branches that got redirected after decode. (Count)
system.cpu.branchPred.earlyResteers_0::DirectCond            0                       # Number of branches that got redirected after decode. (Count)
system.cpu.branchPred.earlyResteers_0::DirectUncond            0                       # Number of branches that got redirected after decode. (Count)
system.cpu.branchPred.earlyResteers_0::IndirectCond            0                       # Number of branches that got redirected after decode. (Count)
system.cpu.branchPred.earlyResteers_0::IndirectUncond            0                       # Number of branches that got redirected after decode. (Count)
system.cpu.branchPred.earlyResteers_0::total            0                       # Number of branches that got redirected after decode. (Count)
system.cpu.branchPred.committed_0::NoBranch            0                       # Number of branches finally committed  (Count)
system.cpu.branchPred.committed_0::Return            0                       # Number of branches finally committed  (Count)
system.cpu.branchPred.committed_0::CallDirect            0                       # Number of branches finally committed  (Count)
system.cpu.branchPred.committed_0::CallIndirect            0                       # Number of branches finally committed  (Count)
system.cpu.branchPred.committed_0::DirectCond            0                       # Number of branches finally committed  (Count)
system.cpu.branchPred.committed_0::DirectUncond            0                       # Number of branches finally committed  (Count)
system.cpu.branchPred.committed_0::IndirectCond            0                       # Number of branches finally committed  (Count)
system.cpu.branchPred.committed_0::IndirectUncond            0                       # Number of branches finally committed  (Count)
system.cpu.branchPred.committed_0::total            0                       # Number of branches finally committed  (Count)
system.cpu.branchPred.mispredicted_0::NoBranch            0                       # Number of committed branches that were mispredicted. (Count)
system.cpu.branchPred.mispredicted_0::Return            0                       # Number of committed branches that were mispredicted. (Count)
system.cpu.branchPred.mispredicted_0::CallDirect            0                       # Number of committed branches that were mispredicted. (Count)
system.cpu.branchPred.mispredicted_0::CallIndirect            0                       # Number of committed branches that were mispredicted. (Count)
system.cpu.branchPred.mispredicted_0::DirectCond            0                       # Number of committed branches that were mispredicted. (Count)
system.cpu.branchPred.mispredicted_0::DirectUncond            0                       # Number of committed branches that were mispredicted. (Count)
system.cpu.branchPred.mispredicted_0::IndirectCond            0                       # Number of committed branches that were mispredicted. (Count)
system.cpu.branchPred.mispredicted_0::IndirectUncond            0                       # Number of committed branches that were mispredicted. (Count)
system.cpu.branchPred.mispredicted_0::total            0                       # Number of committed branches that were mispredicted. (Count)
system.cpu.branchPred.targetProvider_0::NoTarget            0                       # The component providing the target for taken branches (Count)
system.cpu.branchPred.targetProvider_0::BTB            0                       # The component providing the target for taken branches (Count)
system.cpu.branchPred.targetProvider_0::RAS            0                       # The component providing the target for taken branches (Count)
system.cpu.branchPred.targetProvider_0::Indirect            0                       # The component providing the target for taken branches (Count)
system.cpu.branchPred.targetProvider_0::total            0                       # The component providing the target for taken branches (Count)
system.cpu.branchPred.targetWrong_0::NoBranch            0                       # Number of branches where the target was incorrect or not available at prediction time. (Count)
system.cpu.branchPred.targetWrong_0::Return            0                       # Number of branches where the target was incorrect or not available at prediction time. (Count)
system.cpu.branchPred.targetWrong_0::CallDirect            0                       # Number of branches where the target was incorrect or not available at prediction time. (Count)
system.cpu.branchPred.targetWrong_0::CallIndirect            0                       # Number of branches where the target was incorrect or not available at prediction time. (Count)
system.cpu.branchPred.targetWrong_0::DirectCond            0                       # Number of branches where the target was incorrect or not available at prediction time. (Count)
system.cpu.branchPred.targetWrong_0::DirectUncond            0                       # Number of branches where the target was incorrect or not available at prediction time. (Count)
system.cpu.branchPred.targetWrong_0::IndirectCond            0                       # Number of branches where the target was incorrect or not available at prediction time. (Count)
system.cpu.branchPred.targetWrong_0::IndirectUncond            0                       # Number of branches where the target was incorrect or not available at prediction time. (Count)
system.cpu.branchPred.targetWrong_0::total            0                       # Number of branches where the target was incorrect or not available at prediction time. (Count)
system.cpu.branchPred.condPredicted                 0                       # Number of conditional branches predicted (Count)
system.cpu.branchPred.condPredictedTaken            0                       # Number of conditional branches predicted as taken (Count)
system.cpu.branchPred.condIncorrect                 0                       # Number of conditional branches incorrect (Count)
system.cpu.branchPred.predTakenBTBMiss              0                       # Number of branches predicted taken but missed in BTB (Count)
system.cpu.branchPred.NotTakenMispredicted            0                       # Number branches predicted 'not taken' but turned out to be taken (Count)
system.cpu.branchPred.TakenMispredicted             0                       # Number branches predicted taken but are actually not taken (Count)
system.cpu.branchPred.BTBLookups                    0                       # Number of BTB lookups (Count)
system.cpu.branchPred.BTBUpdates                    0                       # Number of BTB updates (Count)
system.cpu.branchPred.BTBHits                       0                       # Number of BTB hits (Count)
system.cpu.branchPred.BTBHitRatio                 nan                       # BTB Hit Ratio (Ratio)
system.cpu.branchPred.BTBMispredicted               0                       # Number BTB mispredictions. No target found or target wrong (Count)
system.cpu.branchPred.indirectLookups               0                       # Number of indirect predictor lookups. (Count)
system.cpu.branchPred.indirectHits                  0                       # Number of indirect target hits. (Count)
system.cpu.branchPred.indirectMisses                0                       # Number of indirect misses. (Count)
system.cpu.branchPred.indirectMispredicted            0                       # Number of mispredicted indirect branches. (Count)
system.cpu.branchPred.btb.lookups::NoBranch            0                       # Number of BTB lookups (Count)
system.cpu.branchPred.btb.lookups::Return            0                       # Number of BTB lookups (Count)
system.cpu.branchPred.btb.lookups::CallDirect            0                       # Number of BTB lookups (Count)
system.cpu.branchPred.btb.lookups::CallIndirect            0                       # Number of BTB lookups (Count)
system.cpu.branchPred.btb.lookups::DirectCond            0                       # Number of BTB lookups (Count)
system.cpu.branchPred.btb.lookups::DirectUncond            0                       # Number of BTB lookups (Count)
system.cpu.branchPred.btb.lookups::IndirectCond            0                       # Number of BTB lookups (Count)
system.cpu.branchPred.btb.lookups::IndirectUncond            0                       # Number of BTB lookups (Count)
system.cpu.branchPred.btb.lookups::total            0                       # Number of BTB lookups (Count)
system.cpu.branchPred.btb.misses::NoBranch            0                       # Number of BTB misses (Count)
system.cpu.branchPred.btb.misses::Return            0                       # Number of BTB misses (Count)
system.cpu.branchPred.btb.misses::CallDirect            0                       # Number of BTB misses (Count)
system.cpu.branchPred.btb.misses::CallIndirect            0                       # Number of BTB misses (Count)
system.cpu.branchPred.btb.misses::DirectCond            0                       # Number of BTB misses (Count)
system.cpu.branchPred.btb.misses::DirectUncond            0                       # Number of BTB misses (Count)
system.cpu.branchPred.btb.misses::IndirectCond            0                       # Number of BTB misses (Count)
system.cpu.branchPred.btb.misses::IndirectUncond            0                       # Number of BTB misses (Count)
system.cpu.branchPred.btb.misses::total             0                       # Number of BTB misses (Count)
system.cpu.branchPred.btb.updates::NoBranch            0                       # Number of BTB updates (Count)
system.cpu.branchPred.btb.updates::Return            0                       # Number of BTB updates (Count)
system.cpu.branchPred.btb.updates::CallDirect            0                       # Number of BTB updates (Count)
system.cpu.branchPred.btb.updates::CallIndirect            0                       # Number of BTB updates (Count)
system.cpu.branchPred.btb.updates::DirectCond            0                       # Number of BTB updates (Count)
system.cpu.branchPred.btb.updates::DirectUncond            0                       # Number of BTB updates (Count)
system.cpu.branchPred.btb.updates::IndirectCond            0                       # Number of BTB updates (Count)
system.cpu.branchPred.btb.updates::IndirectUncond            0                       # Number of BTB updates (Count)
system.cpu.branchPred.btb.updates::total            0                       # Number of BTB updates (Count)
system.cpu.branchPred.btb.mispredict::NoBranch            0                       # Number of BTB mispredictions. No target found or target wrong. (Count)
system.cpu.branchPred.btb.mispredict::Return            0                       # Number of BTB mispredictions. No target found or target wrong. (Count)
system.cpu.branchPred.btb.mispredict::CallDirect            0                       # Number of BTB mispredictions. No target found or target wrong. (Count)
system.cpu.branchPred.btb.mispredict::CallIndirect            0                       # Number of BTB mispredictions. No target found or target wrong. (Count)
system.cpu.branchPred.btb.mispredict::DirectCond            0                       # Number of BTB mispredictions. No target found or target wrong. (Count)
system.cpu.branchPred.btb.mispredict::DirectUncond            0                       # Number of BTB mispredictions. No target found or target wrong. (Count)
system.cpu.branchPred.btb.mispredict::IndirectCond            0                       # Number of BTB mispredictions. No target found or target wrong. (Count)
system.cpu.branchPred.btb.mispredict::IndirectUncond            0                       # Number of BTB mispredictions. No target found or target wrong. (Count)
system.cpu.branchPred.btb.mispredict::total            0                       # Number of BTB mispredictions. No target found or target wrong. (Count)
system.cpu.branchPred.btb.conflict                  0                       # Number of conflicts. Tag hit but PC different. (Ratio)
system.cpu.branchPred.btb.replace_map_0  |           0                       |           0                       |           0                       |           0                       |           0                       |           0                       |           0                       |           0                       # Distribution of replaces (Count)
system.cpu.branchPred.btb.replace_map_1  |           0                       |           0                       |           0                       |           0                       |           0                       |           0                       |           0                       |           0                       # Distribution of replaces (Count)
system.cpu.branchPred.btb.replace_map_2  |           0                       |           0                       |           0                       |           0                       |           0                       |           0                       |           0                       |           0                       # Distribution of replaces (Count)
system.cpu.branchPred.btb.replace_map_3  |           0                       |           0                       |           0                       |           0                       |           0                       |           0                       |           0                       |           0                       # Distribution of replaces (Count)
system.cpu.branchPred.btb.replace_map_4  |           0                       |           0                       |           0                       |           0                       |           0                       |           0                       |           0                       |           0                       # Distribution of replaces (Count)
system.cpu.branchPred.btb.replace_map_5  |           0                       |           0                       |           0                       |           0                       |           0                       |           0                       |           0                       |           0                       # Distribution of replaces (Count)
system.cpu.branchPred.btb.replace_map_6  |           0                       |           0                       |           0                       |           0                       |           0                       |           0                       |           0                       |           0                       # Distribution of replaces (Count)
system.cpu.branchPred.btb.replace_map_7  |           0                       |           0                       |           0                       |           0                       |           0                       |           0                       |           0                       |           0                       # Distribution of replaces (Count)
system.cpu.branchPred.btb.replace_map_8  |           0                       |           0                       |           0                       |           0                       |           0                       |           0                       |           0                       |           0                       # Distribution of replaces (Count)
system.cpu.branchPred.btb.replace_map_9  |           0                       |           0                       |           0                       |           0                       |           0                       |           0                       |           0                       |           0                       # Distribution of replaces (Count)
system.cpu.branchPred.btb.replace_map_10 |           0                       |           0                       |           0                       |           0                       |           0                       |           0                       |           0                       |           0                       # Distribution of replaces (Count)
system.cpu.branchPred.btb.replace_map_11 |           0                       |           0                       |           0                       |           0                       |           0                       |           0                       |           0                       |           0                       # Distribution of replaces (Count)
system.cpu.branchPred.btb.replace_map_12 |           0                       |           0                       |           0                       |           0                       |           0                       |           0                       |           0                       |           0                       # Distribution of replaces (Count)
system.cpu.branchPred.btb.replace_map_13 |           0                       |           0                       |           0                       |           0                       |           0                       |           0                       |           0                       |           0                       # Distribution of replaces (Count)
system.cpu.branchPred.btb.replace_map_14 |           0                       |           0                       |           0                       |           0                       |           0                       |           0                       |           0                       |           0                       # Distribution of replaces (Count)
system.cpu.branchPred.btb.replace_map_15 |           0                       |           0                       |           0                       |           0                       |           0                       |           0                       |           0                       |           0                       # Distribution of replaces (Count)
system.cpu.branchPred.btb.replace_map_16 |           0                       |           0                       |           0                       |           0                       |           0                       |           0                       |           0                       |           0                       # Distribution of replaces (Count)
system.cpu.branchPred.btb.replace_map_17 |           0                       |           0                       |           0                       |           0                       |           0                       |           0                       |           0                       |           0                       # Distribution of replaces (Count)
system.cpu.branchPred.btb.replace_map_18 |           0                       |           0                       |           0                       |           0                       |           0                       |           0                       |           0                       |           0                       # Distribution of replaces (Count)
system.cpu.branchPred.btb.replace_map_19 |           0                       |           0                       |           0                       |           0                       |           0                       |           0                       |           0                       |           0                       # Distribution of replaces (Count)
system.cpu.branchPred.btb.replace_map_20 |           0                       |           0                       |           0                       |           0                       |           0                       |           0                       |           0                       |           0                       # Distribution of replaces (Count)
system.cpu.branchPred.btb.replace_map_21 |           0                       |           0                       |           0                       |           0                       |           0                       |           0                       |           0                       |           0                       # Distribution of replaces (Count)
system.cpu.branchPred.btb.replace_map_22 |           0                       |           0                       |           0                       |           0                       |           0                       |           0                       |           0                       |           0                       # Distribution of replaces (Count)
system.cpu.branchPred.btb.replace_map_23 |           0                       |           0                       |           0                       |           0                       |           0                       |           0                       |           0                       |           0                       # Distribution of replaces (Count)
system.cpu.branchPred.btb.replace_map_24 |           0                       |           0                       |           0                       |           0                       |           0                       |           0                       |           0                       |           0                       # Distribution of replaces (Count)
system.cpu.branchPred.btb.replace_map_25 |           0                       |           0                       |           0                       |           0                       |           0                       |           0                       |           0                       |           0                       # Distribution of replaces (Count)
system.cpu.branchPred.btb.replace_map_26 |           0                       |           0                       |           0                       |           0                       |           0                       |           0                       |           0                       |           0                       # Distribution of replaces (Count)
system.cpu.branchPred.btb.replace_map_27 |           0                       |           0                       |           0                       |           0                       |           0                       |           0                       |           0                       |           0                       # Distribution of replaces (Count)
system.cpu.branchPred.btb.replace_map_28 |           0                       |           0                       |           0                       |           0                       |           0                       |           0                       |           0                       |           0                       # Distribution of replaces (Count)
system.cpu.branchPred.btb.replace_map_29 |           0                       |           0                       |           0                       |           0                       |           0                       |           0                       |           0                       |           0                       # Distribution of replaces (Count)
system.cpu.branchPred.btb.replace_map_30 |           0                       |           0                       |           0                       |           0                       |           0                       |           0                       |           0                       |           0                       # Distribution of replaces (Count)
system.cpu.branchPred.btb.replace_map_31 |           0                       |           0                       |           0                       |           0                       |           0                       |           0                       |           0                       |           0                       # Distribution of replaces (Count)
system.cpu.branchPred.btb.replace_map_32 |           0                       |           0                       |           0                       |           0                       |           0                       |           0                       |           0                       |           0                       # Distribution of replaces (Count)
system.cpu.branchPred.btb.replace_map_33 |           0                       |           0                       |           0                       |           0                       |           0                       |           0                       |           0                       |           0                       # Distribution of replaces (Count)
system.cpu.branchPred.btb.replace_map_34 |           0                       |           0                       |           0                       |           0                       |           0                       |           0                       |           0                       |           0                       # Distribution of replaces (Count)
system.cpu.branchPred.btb.replace_map_35 |           0                       |           0                       |           0                       |           0                       |           0                       |           0                       |           0                       |           0                       # Distribution of replaces (Count)
system.cpu.branchPred.btb.replace_map_36 |           0                       |           0                       |           0                       |           0                       |           0                       |           0                       |           0                       |           0                       # Distribution of replaces (Count)
system.cpu.branchPred.btb.replace_map_37 |           0                       |           0                       |           0                       |           0                       |           0                       |           0                       |           0                       |           0                       # Distribution of replaces (Count)
system.cpu.branchPred.btb.replace_map_38 |           0                       |           0                       |           0                       |           0                       |           0                       |           0                       |           0                       |           0                       # Distribution of replaces (Count)
system.cpu.branchPred.btb.replace_map_39 |           0                       |           0                       |           0                       |           0                       |           0                       |           0                       |           0                       |           0                       # Distribution of replaces (Count)
system.cpu.branchPred.btb.replace_map_40 |           0                       |           0                       |           0                       |           0                       |           0                       |           0                       |           0                       |           0                       # Distribution of replaces (Count)
system.cpu.branchPred.btb.replace_map_41 |           0                       |           0                       |           0                       |           0                       |           0                       |           0                       |           0                       |           0                       # Distribution of replaces (Count)
system.cpu.branchPred.btb.replace_map_42 |           0                       |           0                       |           0                       |           0                       |           0                       |           0                       |           0                       |           0                       # Distribution of replaces (Count)
system.cpu.branchPred.btb.replace_map_43 |           0                       |           0                       |           0                       |           0                       |           0                       |           0                       |           0                       |           0                       # Distribution of replaces (Count)
system.cpu.branchPred.btb.replace_map_44 |           0                       |           0                       |           0                       |           0                       |           0                       |           0                       |           0                       |           0                       # Distribution of replaces (Count)
system.cpu.branchPred.btb.replace_map_45 |           0                       |           0                       |           0                       |           0                       |           0                       |           0                       |           0                       |           0                       # Distribution of replaces (Count)
system.cpu.branchPred.btb.replace_map_46 |           0                       |           0                       |           0                       |           0                       |           0                       |           0                       |           0                       |           0                       # Distribution of replaces (Count)
system.cpu.branchPred.btb.replace_map_47 |           0                       |           0                       |           0                       |           0                       |           0                       |           0                       |           0                       |           0                       # Distribution of replaces (Count)
system.cpu.branchPred.btb.replace_map_48 |           0                       |           0                       |           0                       |           0                       |           0                       |           0                       |           0                       |           0                       # Distribution of replaces (Count)
system.cpu.branchPred.btb.replace_map_49 |           0                       |           0                       |           0                       |           0                       |           0                       |           0                       |           0                       |           0                       # Distribution of replaces (Count)
system.cpu.branchPred.btb.replace_map_50 |           0                       |           0                       |           0                       |           0                       |           0                       |           0                       |           0                       |           0                       # Distribution of replaces (Count)
system.cpu.branchPred.btb.replace_map_51 |           0                       |           0                       |           0                       |           0                       |           0                       |           0                       |           0                       |           0                       # Distribution of replaces (Count)
system.cpu.branchPred.btb.replace_map_52 |           0                       |           0                       |           0                       |           0                       |           0                       |           0                       |           0                       |           0                       # Distribution of replaces (Count)
system.cpu.branchPred.btb.replace_map_53 |           0                       |           0                       |           0                       |           0                       |           0                       |           0                       |           0                       |           0                       # Distribution of replaces (Count)
system.cpu.branchPred.btb.replace_map_54 |           0                       |           0                       |           0                       |           0                       |           0                       |           0                       |           0                       |           0                       # Distribution of replaces (Count)
system.cpu.branchPred.btb.replace_map_55 |           0                       |           0                       |           0                       |           0                       |           0                       |           0                       |           0                       |           0                       # Distribution of replaces (Count)
[...]
system.l2.demandMshrMissRate::cpu.inst              1                       # mshr miss ratio for demand accesses (Ratio)
system.l2.demandMshrMissRate::cpu.data              1                       # mshr miss ratio for demand accesses (Ratio)
system.l2.demandMshrMissRate::total                 1                       # mshr miss ratio for demand accesses (Ratio)
system.l2.overallMshrMissRate::cpu.inst             1                       # mshr miss ratio for overall accesses (Ratio)
system.l2.overallMshrMissRate::cpu.data             1                       # mshr miss ratio for overall accesses (Ratio)
system.l2.overallMshrMissRate::total                1                       # mshr miss ratio for overall accesses (Ratio)
system.l2.demandAvgMshrMissLatency::cpu.inst        63000                       # average overall mshr miss latency ((Tick/Count))
system.l2.demandAvgMshrMissLatency::cpu.data        61000                       # average overall mshr miss latency ((Tick/Count))
system.l2.demandAvgMshrMissLatency::total 62333.333333                       # average overall mshr miss latency ((Tick/Count))
system.l2.overallAvgMshrMissLatency::cpu.inst        63000                       # average overall mshr miss latency ((Tick/Count))
system.l2.overallAvgMshrMissLatency::cpu.data        61000                       # average overall mshr miss latency ((Tick/Count))
system.l2.overallAvgMshrMissLatency::total 62333.333333                       # average overall mshr miss latency ((Tick/Count))
system.l2.replacements                              0                       # number of replacements (Count)
system.l2.ReadCleanReq.misses::cpu.inst             2                       # number of ReadCleanReq misses (Count)
system.l2.ReadCleanReq.misses::total                2                       # number of ReadCleanReq misses (Count)
system.l2.ReadCleanReq.missLatency::cpu.inst       166000                       # number of ReadCleanReq miss ticks (Tick)
system.l2.ReadCleanReq.missLatency::total       166000                       # number of ReadCleanReq miss ticks (Tick)
system.l2.ReadCleanReq.accesses::cpu.inst            2                       # number of ReadCleanReq accesses(hits+misses) (Count)
system.l2.ReadCleanReq.accesses::total              2                       # number of ReadCleanReq accesses(hits+misses) (Count)
system.l2.ReadCleanReq.missRate::cpu.inst            1                       # miss rate for ReadCleanReq accesses (Ratio)
system.l2.ReadCleanReq.missRate::total              1                       # miss rate for ReadCleanReq accesses (Ratio)
system.l2.ReadCleanReq.avgMissLatency::cpu.inst        83000                       # average ReadCleanReq miss latency ((Tick/Count))
system.l2.ReadCleanReq.avgMissLatency::total        83000                       # average ReadCleanReq miss latency ((Tick/Count))
system.l2.ReadCleanReq.mshrMisses::cpu.inst            2                       # number of ReadCleanReq MSHR misses (Count)
system.l2.ReadCleanReq.mshrMisses::total            2                       # number of ReadCleanReq MSHR misses (Count)
system.l2.ReadCleanReq.mshrMissLatency::cpu.inst       126000                       # number of ReadCleanReq MSHR miss ticks (Tick)
system.l2.ReadCleanReq.mshrMissLatency::total       126000                       # number of ReadCleanReq MSHR miss ticks (Tick)
system.l2.ReadCleanReq.mshrMissRate::cpu.inst            1                       # mshr miss rate for ReadCleanReq accesses (Ratio)
system.l2.ReadCleanReq.mshrMissRate::total            1                       # mshr miss rate for ReadCleanReq accesses (Ratio)
system.l2.ReadCleanReq.avgMshrMissLatency::cpu.inst        63000                       # average ReadCleanReq mshr miss latency ((Tick/Count))
system.l2.ReadCleanReq.avgMshrMissLatency::total        63000                       # average ReadCleanReq mshr miss latency ((Tick/Count))
system.l2.ReadSharedReq.misses::cpu.data            1                       # number of ReadSharedReq misses (Count)
system.l2.ReadSharedReq.misses::total               1                       # number of ReadSharedReq misses (Count)
system.l2.ReadSharedReq.missLatency::cpu.data        81000                       # number of ReadSharedReq miss ticks (Tick)
system.l2.ReadSharedReq.missLatency::total        81000                       # number of ReadSharedReq miss ticks (Tick)
system.l2.ReadSharedReq.accesses::cpu.data            1                       # number of ReadSharedReq accesses(hits+misses) (Count)
system.l2.ReadSharedReq.accesses::total             1                       # number of ReadSharedReq accesses(hits+misses) (Count)
system.l2.ReadSharedReq.missRate::cpu.data            1                       # miss rate for ReadSharedReq accesses (Ratio)
system.l2.ReadSharedReq.missRate::total             1                       # miss rate for ReadSharedReq accesses (Ratio)
system.l2.ReadSharedReq.avgMissLatency::cpu.data        81000                       # average ReadSharedReq miss latency ((Tick/Count))
system.l2.ReadSharedReq.avgMissLatency::total        81000                       # average ReadSharedReq miss latency ((Tick/Count))
system.l2.ReadSharedReq.mshrMisses::cpu.data            1                       # number of ReadSharedReq MSHR misses (Count)
system.l2.ReadSharedReq.mshrMisses::total            1                       # number of ReadSharedReq MSHR misses (Count)
system.l2.ReadSharedReq.mshrMissLatency::cpu.data        61000                       # number of ReadSharedReq MSHR miss ticks (Tick)
system.l2.ReadSharedReq.mshrMissLatency::total        61000                       # number of ReadSharedReq MSHR miss ticks (Tick)
system.l2.ReadSharedReq.mshrMissRate::cpu.data            1                       # mshr miss rate for ReadSharedReq accesses (Ratio)
system.l2.ReadSharedReq.mshrMissRate::total            1                       # mshr miss rate for ReadSharedReq accesses (Ratio)
system.l2.ReadSharedReq.avgMshrMissLatency::cpu.data        61000                       # average ReadSharedReq mshr miss latency ((Tick/Count))
system.l2.ReadSharedReq.avgMshrMissLatency::total        61000                       # average ReadSharedReq mshr miss latency ((Tick/Count))
system.l2.power_state.pwrStateResidencyTicks::UNDEFINED       182000                       # Cumulative time (in ticks) in various power states (Tick)
system.l2.tags.tagsInUse                     0.923088                       # Average ticks per tags in use ((Tick/Count))
system.l2.tags.totalRefs                            3                       # Total number of references to valid blocks. (Count)
system.l2.tags.sampledRefs                          3                       # Sample count of references to valid blocks. (Count)
system.l2.tags.avgRefs                              1                       # Average number of references to valid blocks. ((Count/Count))
system.l2.tags.warmupTick                       63000                       # The tick when the warmup percentage was hit. (Tick)
system.l2.tags.occupancies::cpu.inst         0.774732                       # Average occupied blocks per tick, per requestor ((Count/Tick))
system.l2.tags.occupancies::cpu.data         0.148356                       # Average occupied blocks per tick, per requestor ((Count/Tick))
system.l2.tags.avgOccs::cpu.inst             0.000024                       # Average percentage of cache occupancy ((Ratio/Tick))
system.l2.tags.avgOccs::cpu.data             0.000005                       # Average percentage of cache occupancy ((Ratio/Tick))
system.l2.tags.avgOccs::total                0.000028                       # Average percentage of cache occupancy ((Ratio/Tick))
system.l2.tags.occupanciesTaskId::1024              3                       # Occupied blocks per task id (Count)
system.l2.tags.ageTaskId_1024::0                    3                       # Occupied blocks per task id, per block age (Count)
system.l2.tags.ratioOccsTaskId::1024         0.000092                       # Ratio of occupied blocks and all blocks, per task id (Ratio)
system.l2.tags.tagAccesses                         27                       # Number of tag accesses (Count)
system.l2.tags.dataAccesses                        27                       # Number of data accesses (Count)
system.l2.tags.power_state.pwrStateResidencyTicks::UNDEFINED       182000                       # Cumulative time (in ticks) in various power states (Tick)
system.mem_ctrls.bytesRead::cpu.inst              128                       # Number of bytes read from this memory (Byte)
system.mem_ctrls.bytesRead::cpu.data               64                       # Number of bytes read from this memory (Byte)
system.mem_ctrls.bytesRead::total                 192                       # Number of bytes read from this memory (Byte)
system.mem_ctrls.bytesInstRead::cpu.inst          128                       # Number of instructions bytes read from this memory (Byte)
system.mem_ctrls.bytesInstRead::total             128                       # Number of instructions bytes read from this memory (Byte)
system.mem_ctrls.numReads::cpu.inst                 2                       # Number of read requests responded to by this memory (Count)
system.mem_ctrls.numReads::cpu.data                 1                       # Number of read requests responded to by this memory (Count)
system.mem_ctrls.numReads::total                    3                       # Number of read requests responded to by this memory (Count)
system.mem_ctrls.bwRead::cpu.inst           703296703                       # Total read bandwidth from this memory ((Byte/Second))
system.mem_ctrls.bwRead::cpu.data           351648352                       # Total read bandwidth from this memory ((Byte/Second))
system.mem_ctrls.bwRead::total             1054945055                       # Total read bandwidth from this memory ((Byte/Second))
system.mem_ctrls.bwInstRead::cpu.inst       703296703                       # Instruction read bandwidth from this memory ((Byte/Second))
system.mem_ctrls.bwInstRead::total          703296703                       # Instruction read bandwidth from this memory ((Byte/Second))
system.mem_ctrls.bwTotal::cpu.inst          703296703                       # Total bandwidth to/from this memory ((Byte/Second))
system.mem_ctrls.bwTotal::cpu.data          351648352                       # Total bandwidth to/from this memory ((Byte/Second))
system.mem_ctrls.bwTotal::total            1054945055                       # Total bandwidth to/from this memory ((Byte/Second))
system.mem_ctrls.power_state.pwrStateResidencyTicks::UNDEFINED       182000                       # Cumulative time (in ticks) in various power states (Tick)
system.membus.transDist::ReadResp                   3                       # Transaction distribution (Count)
system.membus.transDist::ReadSharedReq              3                       # Transaction distribution (Count)
system.membus.pktCount_system.l2.mem_side_port::system.mem_ctrls.port            6                       # Packet count per connected requestor and responder (Count)
system.membus.pktCount_system.l2.mem_side_port::total            6                       # Packet count per connected requestor and responder (Count)
system.membus.pktCount::total                       6                       # Packet count per connected requestor and responder (Count)
system.membus.pktSize_system.l2.mem_side_port::system.mem_ctrls.port          192                       # Cumulative packet size per connected requestor and responder (Byte)
system.membus.pktSize_system.l2.mem_side_port::total          192                       # Cumulative packet size per connected requestor and responder (Byte)
system.membus.pktSize::total                      192                       # Cumulative packet size per connected requestor and responder (Byte)
system.membus.snoops                                0                       # Total snoops (Count)
system.membus.snoopTraffic                          0                       # Total snoop traffic (Byte)
system.membus.snoopFanout::samples                  4                       # Request fanout histogram (Count)
system.membus.snoopFanout::mean                     0                       # Request fanout histogram (Count)
system.membus.snoopFanout::stdev                    0                       # Request fanout histogram (Count)
system.membus.snoopFanout::underflows               0      0.00%      0.00% # Request fanout histogram (Count)
system.membus.snoopFanout::0                        4    100.00%    100.00% # Request fanout histogram (Count)
system.membus.snoopFanout::1                        0      0.00%    100.00% # Request fanout histogram (Count)
system.membus.snoopFanout::overflows                0      0.00%    100.00% # Request fanout histogram (Count)
system.membus.snoopFanout::min_value                0                       # Request fanout histogram (Count)
system.membus.snoopFanout::max_value                0                       # Request fanout histogram (Count)
system.membus.snoopFanout::total                    4                       # Request fanout histogram (Count)
system.membus.power_state.pwrStateResidencyTicks::UNDEFINED       182000                       # Cumulative time (in ticks) in various power states (Tick)
system.membus.reqLayer2.occupancy                4328                       # Layer occupancy (ticks) (Tick)
system.membus.reqLayer2.utilization               0.0                       # Layer utilization (Ratio)
system.membus.respLayer1.occupancy              15000                       # Layer occupancy (ticks) (Tick)
system.membus.respLayer1.utilization              0.1                       # Layer utilization (Ratio)
system.membus.snoop_filter.totRequests              4                       # Total number of requests made to the snoop filter. (Count)
system.membus.snoop_filter.hitSingleRequests            0                       # Number of requests hitting in the snoop filter with a single holder of the requested data. (Count)
system.membus.snoop_filter.hitMultiRequests            0                       # Number of requests hitting in the snoop filter with multiple (>1) holders of the requested data. (Count)
system.membus.snoop_filter.totSnoops                0                       # Total number of snoops made to the snoop filter. (Count)
system.membus.snoop_filter.hitSingleSnoops            0                       # Number of snoops hitting in the snoop filter with a single holder of the requested data. (Count)
system.membus.snoop_filter.hitMultiSnoops            0                       # Number of snoops hitting in the snoop filter with multiple (>1) holders of the requested data. (Count)
system.tol2bus.transDist::ReadResp                  3                       # Transaction distribution (Count)
system.tol2bus.transDist::ReadCleanReq              2                       # Transaction distribution (Count)
system.tol2bus.transDist::ReadSharedReq             1                       # Transaction distribution (Count)
system.tol2bus.pktCount_system.cpu.icache.mem_side_port::system.l2.cpu_side_port            4                       # Packet count per connected requestor and responder (Count)
system.tol2bus.pktCount_system.cpu.dcache.mem_side_port::system.l2.cpu_side_port            2                       # Packet count per connected requestor and responder (Count)
system.tol2bus.pktCount::total                      6                       # Packet count per connected requestor and responder (Count)
system.tol2bus.pktSize_system.cpu.icache.mem_side_port::system.l2.cpu_side_port          128                       # Cumulative packet size per connected requestor and responder (Byte)
system.tol2bus.pktSize_system.cpu.dcache.mem_side_port::system.l2.cpu_side_port           64                       # Cumulative packet size per connected requestor and responder (Byte)
system.tol2bus.pktSize::total                     192                       # Cumulative packet size per connected requestor and responder (Byte)
system.tol2bus.snoops                               0                       # Total snoops (Count)
system.tol2bus.snoopTraffic                         0                       # Total snoop traffic (Byte)
system.tol2bus.snoopFanout::samples                 3                       # Request fanout histogram (Count)
system.tol2bus.snoopFanout::mean                    0                       # Request fanout histogram (Count)
system.tol2bus.snoopFanout::stdev                   0                       # Request fanout histogram (Count)
system.tol2bus.snoopFanout::underflows              0      0.00%      0.00% # Request fanout histogram (Count)
system.tol2bus.snoopFanout::0                       3    100.00%    100.00% # Request fanout histogram (Count)
system.tol2bus.snoopFanout::1                       0      0.00%    100.00% # Request fanout histogram (Count)
system.tol2bus.snoopFanout::2                       0      0.00%    100.00% # Request fanout histogram (Count)
system.tol2bus.snoopFanout::3                       0      0.00%    100.00% # Request fanout histogram (Count)
system.tol2bus.snoopFanout::4                       0      0.00%    100.00% # Request fanout histogram (Count)
system.tol2bus.snoopFanout::overflows               0      0.00%    100.00% # Request fanout histogram (Count)
system.tol2bus.snoopFanout::min_value               0                       # Request fanout histogram (Count)
system.tol2bus.snoopFanout::max_value               0                       # Request fanout histogram (Count)
system.tol2bus.snoopFanout::total                   3                       # Request fanout histogram (Count)
system.tol2bus.power_state.pwrStateResidencyTicks::UNDEFINED       182000                       # Cumulative time (in ticks) in various power states (Tick)
system.tol2bus.reqLayer0.occupancy               3000                       # Layer occupancy (ticks) (Tick)
system.tol2bus.reqLayer0.utilization              0.0                       # Layer utilization (Ratio)
system.tol2bus.respLayer0.occupancy              6000                       # Layer occupancy (ticks) (Tick)
system.tol2bus.respLayer0.utilization             0.0                       # Layer utilization (Ratio)
system.tol2bus.respLayer1.occupancy              3000                       # Layer occupancy (ticks) (Tick)
system.tol2bus.respLayer1.utilization             0.0                       # Layer utilization (Ratio)
system.tol2bus.snoop_filter.totRequests             3                       # Total number of requests made to the snoop filter. (Count)
system.tol2bus.snoop_filter.hitSingleRequests            0                       # Number of requests hitting in the snoop filter with a single holder of the requested data. (Count)
system.tol2bus.snoop_filter.hitMultiRequests            0                       # Number of requests hitting in the snoop filter with multiple (>1) holders of the requested data. (Count)
system.tol2bus.snoop_filter.totSnoops               0                       # Total number of snoops made to the snoop filter. (Count)
system.tol2bus.snoop_filter.hitSingleSnoops            0                       # Number of snoops hitting in the snoop filter with a single holder of the requested data. (Count)
system.tol2bus.snoop_filter.hitMultiSnoops            0                       # Number of snoops hitting in the snoop filter with multiple (>1) holders of the requested data. (Count)
system.voltage_domain.voltage                       1                       # Voltage in Volts (Volt)
system.workload.inst.arm                            0                       # number of arm instructions executed (Count)
system.workload.inst.quiesce                        0                       # number of quiesce instructions executed (Count)

---------- End Simulation Statistics   ----------
