warn: The se.py script is deprecated. It will be removed in future releases of  gem5.
Global frequency set at 1000000000000 ticks per second
warn: No dot file generated. Please install pydot to generate the dot file and pdf.
src/arch/x86/linux/se_workload.cc:76: warn: Unknown operating system; assuming Linux.
src/base/statistics.hh:279: warn: One of the stats is a legacy stat. Legacy stat is a stat that does not belong to any statistics::Group. Legacy stat is deprecated.
system.remote_gdb: Listening for connections on port 7000
gem5 Simulator System.  https://www.gem5.org
gem5 is copyrighted software; use the --copyright option for details.

gem5 version 24.0.0.1
gem5 compiled Apr  5 2026 18:40:41
gem5 started Apr  5 2026 18:41:49
gem5 executing on spectral, pid 1963498
command line: ./build/X86/gem5.opt --debug-flags=Rename configs/deprecated/example/se.py --cmd=./my-progs/exit -n 1 --mem-type SimpleMemory --caches --l2cache --cpu-type DerivO3CPU --maxinsts=1000000

**** REAL SIMULATION ****
src/sim/simulate.cc:199: info: Entering event queue @ 0.  Starting simulation...
      0: system.cpu.rename: Processing [tid:0]
      0: system.cpu.rename: [tid:0] Free IQ: 559, Free ROB: 918, Free LQ: 132, Free SQ: 72, FreeRM 127(879 870 917 1834 127 8 4585)
      0: system.cpu.rename: [tid:0] 0 instructions not yet in ROB
      0: system.cpu.rename: calcFreeLQEntries: free lqEntries: 132, loadsInProgress: 0, loads dispatchedToLQ: 0
      0: system.cpu.rename: [tid:0] Not blocked, so attempting to run stage.
      0: system.cpu.rename: [tid:0] Nothing to do, breaking out early.
    500: system.cpu.rename: Processing [tid:0]
    500: system.cpu.rename: [tid:0] Free IQ: 559, Free ROB: 918, Free LQ: 132, Free SQ: 72, FreeRM 127(879 870 917 1834 127 8 4585)
    500: system.cpu.rename: [tid:0] 0 instructions not yet in ROB
    500: system.cpu.rename: [tid:0] Squashing instructions due to squash from commit.
    500: system.cpu.rename: [tid:0] [squash sn:0] Squashing instructions.
   1000: system.cpu.rename: Processing [tid:0]
   1000: system.cpu.rename: [tid:0] Free IQ: 559, Free ROB: 918, Free LQ: 132, Free SQ: 72, FreeRM 127(879 870 917 1834 127 8 4585)
   1000: system.cpu.rename: [tid:0] 0 instructions not yet in ROB
   1000: system.cpu.rename: calcFreeLQEntries: free lqEntries: 132, loadsInProgress: 0, loads dispatchedToLQ: 0
   1000: system.cpu.rename: [tid:0] Done squashing, switching to running.
   1000: system.cpu.rename: [tid:0] Not blocked, so attempting to run stage.
   1000: system.cpu.rename: [tid:0] Nothing to do, breaking out early.
   1500: system.cpu.rename: Processing [tid:0]
   1500: system.cpu.rename: [tid:0] Free IQ: 559, Free ROB: 918, Free LQ: 132, Free SQ: 72, FreeRM 127(879 870 917 1834 127 8 4585)
   1500: system.cpu.rename: [tid:0] 0 instructions not yet in ROB
   1500: system.cpu.rename: calcFreeLQEntries: free lqEntries: 132, loadsInProgress: 0, loads dispatchedToLQ: 0
   1500: system.cpu.rename: [tid:0] Not blocked, so attempting to run stage.
   1500: system.cpu.rename: [tid:0] Nothing to do, breaking out early.
   2000: system.cpu.rename: Processing [tid:0]
   2000: system.cpu.rename: [tid:0] Free IQ: 559, Free ROB: 918, Free LQ: 132, Free SQ: 72, FreeRM 127(879 870 917 1834 127 8 4585)
   2000: system.cpu.rename: [tid:0] 0 instructions not yet in ROB
   2000: system.cpu.rename: calcFreeLQEntries: free lqEntries: 132, loadsInProgress: 0, loads dispatchedToLQ: 0
   2000: system.cpu.rename: [tid:0] Not blocked, so attempting to run stage.
   2000: system.cpu.rename: [tid:0] Nothing to do, breaking out early.
   2500: system.cpu.rename: Processing [tid:0]
   2500: system.cpu.rename: [tid:0] Free IQ: 559, Free ROB: 918, Free LQ: 132, Free SQ: 72, FreeRM 127(879 870 917 1834 127 8 4585)
   2500: system.cpu.rename: [tid:0] 0 instructions not yet in ROB
   2500: system.cpu.rename: calcFreeLQEntries: free lqEntries: 132, loadsInProgress: 0, loads dispatchedToLQ: 0
   2500: system.cpu.rename: [tid:0] Not blocked, so attempting to run stage.
   2500: system.cpu.rename: [tid:0] Nothing to do, breaking out early.
   3000: system.cpu.rename: Processing [tid:0]
   3000: system.cpu.rename: [tid:0] Free IQ: 559, Free ROB: 918, Free LQ: 132, Free SQ: 72, FreeRM 127(879 870 917 1834 127 8 4585)
   3000: system.cpu.rename: [tid:0] 0 instructions not yet in ROB
   3000: system.cpu.rename: calcFreeLQEntries: free lqEntries: 132, loadsInProgress: 0, loads dispatchedToLQ: 0
   3000: system.cpu.rename: [tid:0] Not blocked, so attempting to run stage.
   3000: system.cpu.rename: [tid:0] Nothing to do, breaking out early.
   3500: system.cpu.rename: Processing [tid:0]
   3500: system.cpu.rename: [tid:0] Free IQ: 559, Free ROB: 918, Free LQ: 132, Free SQ: 72, FreeRM 127(879 870 917 1834 127 8 4585)
   3500: system.cpu.rename: [tid:0] 0 instructions not yet in ROB
   3500: system.cpu.rename: calcFreeLQEntries: free lqEntries: 132, loadsInProgress: 0, loads dispatchedToLQ: 0
   3500: system.cpu.rename: [tid:0] Not blocked, so attempting to run stage.
   3500: system.cpu.rename: [tid:0] Nothing to do, breaking out early.
   4000: system.cpu.rename: Processing [tid:0]
   4000: system.cpu.rename: [tid:0] Free IQ: 559, Free ROB: 918, Free LQ: 132, Free SQ: 72, FreeRM 127(879 870 917 1834 127 8 4585)
   4000: system.cpu.rename: [tid:0] 0 instructions not yet in ROB
   4000: system.cpu.rename: calcFreeLQEntries: free lqEntries: 132, loadsInProgress: 0, loads dispatchedToLQ: 0
   4000: system.cpu.rename: [tid:0] Not blocked, so attempting to run stage.
   4000: system.cpu.rename: [tid:0] Nothing to do, breaking out early.
   4500: system.cpu.rename: Processing [tid:0]
   4500: system.cpu.rename: [tid:0] Free IQ: 559, Free ROB: 918, Free LQ: 132, Free SQ: 72, FreeRM 127(879 870 917 1834 127 8 4585)
   4500: system.cpu.rename: [tid:0] 0 instructions not yet in ROB
   4500: system.cpu.rename: calcFreeLQEntries: free lqEntries: 132, loadsInProgress: 0, loads dispatchedToLQ: 0
   4500: system.cpu.rename: [tid:0] Not blocked, so attempting to run stage.
   4500: system.cpu.rename: [tid:0] Nothing to do, breaking out early.
   5000: system.cpu.rename: Processing [tid:0]
   5000: system.cpu.rename: [tid:0] Free IQ: 559, Free ROB: 918, Free LQ: 132, Free SQ: 72, FreeRM 127(879 870 917 1834 127 8 4585)
   5000: system.cpu.rename: [tid:0] 0 instructions not yet in ROB
   5000: system.cpu.rename: calcFreeLQEntries: free lqEntries: 132, loadsInProgress: 0, loads dispatchedToLQ: 0
   5000: system.cpu.rename: [tid:0] Not blocked, so attempting to run stage.
   5000: system.cpu.rename: [tid:0] Nothing to do, breaking out early.
   5500: system.cpu.rename: Processing [tid:0]
   5500: system.cpu.rename: [tid:0] Free IQ: 559, Free ROB: 918, Free LQ: 132, Free SQ: 72, FreeRM 127(879 870 917 1834 127 8 4585)
   5500: system.cpu.rename: [tid:0] 0 instructions not yet in ROB
   5500: system.cpu.rename: calcFreeLQEntries: free lqEntries: 132, loadsInProgress: 0, loads dispatchedToLQ: 0
   5500: system.cpu.rename: [tid:0] Not blocked, so attempting to run stage.
   5500: system.cpu.rename: [tid:0] Nothing to do, breaking out early.
  64000: system.cpu.rename: Processing [tid:0]
  64000: system.cpu.rename: [tid:0] Free IQ: 559, Free ROB: 918, Free LQ: 132, Free SQ: 72, FreeRM 127(879 870 917 1834 127 8 4585)
  64000: system.cpu.rename: [tid:0] 0 instructions not yet in ROB
  64000: system.cpu.rename: calcFreeLQEntries: free lqEntries: 132, loadsInProgress: 0, loads dispatchedToLQ: 0
  64000: system.cpu.rename: [tid:0] Not blocked, so attempting to run stage.
  64000: system.cpu.rename: [tid:0] Nothing to do, breaking out early.
  64500: system.cpu.rename: Processing [tid:0]
  64500: system.cpu.rename: [tid:0] Free IQ: 559, Free ROB: 918, Free LQ: 132, Free SQ: 72, FreeRM 127(879 870 917 1834 127 8 4585)
  64500: system.cpu.rename: [tid:0] 0 instructions not yet in ROB
  64500: system.cpu.rename: calcFreeLQEntries: free lqEntries: 132, loadsInProgress: 0, loads dispatchedToLQ: 0
  64500: system.cpu.rename: [tid:0] Not blocked, so attempting to run stage.
  64500: system.cpu.rename: [tid:0] Nothing to do, breaking out early.
  65000: system.cpu.rename: Processing [tid:0]
  65000: system.cpu.rename: [tid:0] Free IQ: 559, Free ROB: 918, Free LQ: 132, Free SQ: 72, FreeRM 127(879 870 917 1834 127 8 4585)
  65000: system.cpu.rename: [tid:0] 0 instructions not yet in ROB
  65000: system.cpu.rename: calcFreeLQEntries: free lqEntries: 132, loadsInProgress: 0, loads dispatchedToLQ: 0
  65000: system.cpu.rename: [tid:0] Not blocked, so attempting to run stage.
  65000: system.cpu.rename: [tid:0] 10 available instructions to send iew.
  65000: system.cpu.rename: [tid:0] 0 insts pipelining from Rename | 0 insts dispatched to IQ last cycle.
  65000: system.cpu.rename: [tid:0] Sending instructions to IEW.
  65000: system.cpu.rename: [tid:0] Processing instruction [sn:1] with PC (0x401000=>0x401004).(0=>1).
  65000: global: Renamed reg t1 to physical reg 39 (39) old mapping was 17 (17)
  65000: system.cpu.rename: [tid:0] Renaming arch reg 17 (integer) to physical reg 39 (39).
  65000: system.cpu.rename: [tid:0] [sn:1] Adding instruction to history buffer (size=1).
  65000: system.cpu.rename: [tid:0] Sending instructions to IEW.
  65000: system.cpu.rename: [tid:0] Processing instruction [sn:2] with PC (0x401000=>0x401004).(1=>2).
  65000: system.cpu.rename: [tid:0] Looking up integer arch reg 4, got phys reg 4 (integer)
  65000: system.cpu.rename: [tid:0] Register 4 (flat: 4) (integer) is ready.
  65000: system.cpu.rename: [tid:0] Looking up integer arch reg 17, got phys reg 39 (integer)
  65000: system.cpu.rename: [tid:0] Register 39 (flat: 39) (integer) is not ready.
  65000: system.cpu.rename: [tid:0] Looking up invalid arch reg 0, got phys reg 4294967295 (invalid)
  65000: system.cpu.rename: [tid:0] Register 4294967295 (flat: 4294967295) (invalid) is ready.
  65000: system.cpu.rename: [tid:0] Looking up invalid arch reg 0, got phys reg 4294967295 (invalid)
  65000: system.cpu.rename: [tid:0] Register 4294967295 (flat: 4294967295) (invalid) is ready.
  65000: system.cpu.rename: [tid:0] Looking up invalid arch reg 0, got phys reg 4294967295 (invalid)
  65000: system.cpu.rename: [tid:0] Register 4294967295 (flat: 4294967295) (invalid) is ready.
  65000: system.cpu.rename: [tid:0] Looking up invalid arch reg 0, got phys reg 4294967295 (invalid)
  65000: system.cpu.rename: [tid:0] Register 4294967295 (flat: 4294967295) (invalid) is ready.
  65000: system.cpu.rename: [tid:0] Looking up invalid arch reg 0, got phys reg 4294967295 (invalid)
  65000: system.cpu.rename: [tid:0] Register 4294967295 (flat: 4294967295) (invalid) is ready.
  65000: global: Renamed reg rsp to physical reg 40 (40) old mapping was 4 (4)
  65000: system.cpu.rename: [tid:0] Renaming arch reg 4 (integer) to physical reg 40 (40).
  65000: system.cpu.rename: [tid:0] [sn:2] Adding instruction to history buffer (size=2).
  65000: global: Renamed reg condition_code[0] to physical reg 4731 (4731) old mapping was 4726 (4726)
  65000: system.cpu.rename: [tid:0] Renaming arch reg 0 (condition_code) to physical reg 5 (4731).
  65000: system.cpu.rename: [tid:0] [sn:2] Adding instruction to history buffer (size=3).
  65000: global: Renamed reg condition_code[1] to physical reg 4732 (4732) old mapping was 4727 (4727)
  65000: system.cpu.rename: [tid:0] Renaming arch reg 1 (condition_code) to physical reg 6 (4732).
  65000: system.cpu.rename: [tid:0] [sn:2] Adding instruction to history buffer (size=4).
  65000: system.cpu.rename: [tid:0] Renaming arch reg 0 (invalid) to physical reg 4294967295 (4294967295).
  65000: system.cpu.rename: [tid:0] [sn:2] Adding instruction to history buffer (size=5).
  65000: system.cpu.rename: [tid:0] Renaming arch reg 0 (invalid) to physical reg 4294967295 (4294967295).
  65000: system.cpu.rename: [tid:0] [sn:2] Adding instruction to history buffer (size=6).
  65000: system.cpu.rename: [tid:0] Renaming arch reg 0 (invalid) to physical reg 4294967295 (4294967295).
  65000: system.cpu.rename: [tid:0] [sn:2] Adding instruction to history buffer (size=7).
  65000: system.cpu.rename: [tid:0] Sending instructions to IEW.
  65000: system.cpu.rename: [tid:0] Processing instruction [sn:3] with PC (0x401004=>0x40100b).(0=>1).
  65000: global: Renamed reg t1 to physical reg 41 (41) old mapping was 39 (39)
  65000: system.cpu.rename: [tid:0] Renaming arch reg 17 (integer) to physical reg 41 (41).
  65000: system.cpu.rename: [tid:0] [sn:3] Adding instruction to history buffer (size=8).
  65000: system.cpu.rename: [tid:0] Sending instructions to IEW.
  65000: system.cpu.rename: calcFreeSQEntries: free sqEntries: 72, storesInProgress: 0, stores dispatchedToSQ: 0
  65000: system.cpu.rename: [tid:0] Processing instruction [sn:4] with PC (0x401004=>0x40100b).(1=>2).
  65000: system.cpu.rename: [tid:0] Looking up invalid arch reg 0, got phys reg 4294967295 (invalid)
  65000: system.cpu.rename: [tid:0] Register 4294967295 (flat: 4294967295) (invalid) is ready.
  65000: system.cpu.rename: [tid:0] Looking up integer arch reg 4, got phys reg 40 (integer)
  65000: system.cpu.rename: [tid:0] Register 40 (flat: 40) (integer) is not ready.
  65000: system.cpu.rename: [tid:0] Looking up integer arch reg 17, got phys reg 41 (integer)
  65000: system.cpu.rename: [tid:0] Register 41 (flat: 41) (integer) is not ready.
  65000: system.cpu.rename: [tid:0] Looking up miscellaneous arch reg 154, got phys reg 154 (miscellaneous)
  65000: system.cpu.rename: [tid:0] Register 154 (flat: 0) (miscellaneous) is ready.
  65000: system.cpu.rename: [tid:0] Sending instructions to IEW.
  65000: system.cpu.rename: calcFreeLQEntries: free lqEntries: 132, loadsInProgress: 0, loads dispatchedToLQ: 0
  65000: system.cpu.rename: [tid:0] Processing instruction [sn:5] with PC (0x40100b=>0x40100e).(0=>1).
  65000: system.cpu.rename: [tid:0] Looking up invalid arch reg 0, got phys reg 4294967295 (invalid)
  65000: system.cpu.rename: [tid:0] Register 4294967295 (flat: 4294967295) (invalid) is ready.
  65000: system.cpu.rename: [tid:0] Looking up integer arch reg 4, got phys reg 40 (integer)
  65000: system.cpu.rename: [tid:0] Register 40 (flat: 40) (integer) is not ready.
  65000: system.cpu.rename: [tid:0] Looking up miscellaneous arch reg 154, got phys reg 154 (miscellaneous)
  65000: system.cpu.rename: [tid:0] Register 154 (flat: 0) (miscellaneous) is ready.
  65000: global: Renamed reg rbx to physical reg 42 (42) old mapping was 3 (3)
  65000: system.cpu.rename: [tid:0] Renaming arch reg 3 (integer) to physical reg 42 (42).
  65000: system.cpu.rename: [tid:0] [sn:5] Adding instruction to history buffer (size=9).
  65000: system.cpu.rename: Bypassing Load [sn:5] speculatively.
  65000: system.cpu.rename: [tid:0] Renaming arch reg 3 (integer) to physical reg 41 (41) due to SMB bypass.
  65000: system.cpu.rename: [tid:0] Sending instructions to IEW.
  65000: system.cpu.rename: [tid:0] Processing instruction [sn:6] with PC (0x40100e=>0x401015).(0=>1).
  65000: global: Renamed reg rax to physical reg 43 (43) old mapping was 0 (0)
  65000: system.cpu.rename: [tid:0] Renaming arch reg 0 (integer) to physical reg 43 (43).
  65000: system.cpu.rename: [tid:0] [sn:6] Adding instruction to history buffer (size=11).
  65000: system.cpu.rename: [tid:0] Sending instructions to IEW.
  65000: system.cpu.rename: [tid:0] Processing instruction [sn:7] with PC (0x401015=>0x401018).(0=>1).
  65000: system.cpu.rename: [tid:0] Looking up integer arch reg 7, got phys reg 7 (integer)
  65000: system.cpu.rename: [tid:0] Register 7 (flat: 7) (integer) is ready.
  65000: system.cpu.rename: [tid:0] Looking up integer arch reg 7, got phys reg 7 (integer)
  65000: system.cpu.rename: [tid:0] Register 7 (flat: 7) (integer) is ready.
  65000: system.cpu.rename: [tid:0] Looking up invalid arch reg 0, got phys reg 4294967295 (invalid)
  65000: system.cpu.rename: [tid:0] Register 4294967295 (flat: 4294967295) (invalid) is ready.
  65000: system.cpu.rename: [tid:0] Looking up invalid arch reg 0, got phys reg 4294967295 (invalid)
  65000: system.cpu.rename: [tid:0] Register 4294967295 (flat: 4294967295) (invalid) is ready.
  65000: system.cpu.rename: [tid:0] Looking up invalid arch reg 0, got phys reg 4294967295 (invalid)
  65000: system.cpu.rename: [tid:0] Register 4294967295 (flat: 4294967295) (invalid) is ready.
  65000: system.cpu.rename: [tid:0] Looking up invalid arch reg 0, got phys reg 4294967295 (invalid)
  65000: system.cpu.rename: [tid:0] Register 4294967295 (flat: 4294967295) (invalid) is ready.
  65000: system.cpu.rename: [tid:0] Looking up invalid arch reg 0, got phys reg 4294967295 (invalid)
  65000: system.cpu.rename: [tid:0] Register 4294967295 (flat: 4294967295) (invalid) is ready.
  65000: global: Renamed reg rdi to physical reg 44 (44) old mapping was 7 (7)
  65000: system.cpu.rename: [tid:0] Renaming arch reg 7 (integer) to physical reg 44 (44).
  65000: system.cpu.rename: [tid:0] [sn:7] Adding instruction to history buffer (size=12).
  65000: global: Renamed reg condition_code[0] to physical reg 4733 (4733) old mapping was 4731 (4731)
  65000: system.cpu.rename: [tid:0] Renaming arch reg 0 (condition_code) to physical reg 7 (4733).
  65000: system.cpu.rename: [tid:0] [sn:7] Adding instruction to history buffer (size=13).
  65000: global: Renamed reg condition_code[1] to physical reg 4734 (4734) old mapping was 4732 (4732)
  65000: system.cpu.rename: [tid:0] Renaming arch reg 1 (condition_code) to physical reg 8 (4734).
  65000: system.cpu.rename: [tid:0] [sn:7] Adding instruction to history buffer (size=14).
  65000: system.cpu.rename: [tid:0] Renaming arch reg 0 (invalid) to physical reg 4294967295 (4294967295).
  65000: system.cpu.rename: [tid:0] [sn:7] Adding instruction to history buffer (size=15).
  65000: system.cpu.rename: [tid:0] Renaming arch reg 0 (invalid) to physical reg 4294967295 (4294967295).
  65000: system.cpu.rename: [tid:0] [sn:7] Adding instruction to history buffer (size=16).
  65000: system.cpu.rename: [tid:0] Renaming arch reg 0 (invalid) to physical reg 4294967295 (4294967295).
  65000: system.cpu.rename: [tid:0] [sn:7] Adding instruction to history buffer (size=17).
  65000: system.cpu.rename: [tid:0] Sending instructions to IEW.
  65000: system.cpu.rename: [tid:0] Processing instruction [sn:8] with PC (0x401018=>0x40101c).(0=>1).
  65000: global: Renamed reg t1 to physical reg 45 (45) old mapping was 41 (41)
  65000: system.cpu.rename: [tid:0] Renaming arch reg 17 (integer) to physical reg 45 (45).
  65000: system.cpu.rename: [tid:0] [sn:8] Adding instruction to history buffer (size=18).
  65000: system.cpu.rename: [tid:0] Sending instructions to IEW.
  65000: system.cpu.rename: [tid:0] Processing instruction [sn:9] with PC (0x401018=>0x40101c).(1=>2).
  65000: system.cpu.rename: [tid:0] Looking up integer arch reg 4, got phys reg 40 (integer)
  65000: system.cpu.rename: [tid:0] Register 40 (flat: 40) (integer) is not ready.
  65000: system.cpu.rename: [tid:0] Looking up integer arch reg 17, got phys reg 45 (integer)
  65000: system.cpu.rename: [tid:0] Register 45 (flat: 45) (integer) is not ready.
  65000: system.cpu.rename: [tid:0] Looking up invalid arch reg 0, got phys reg 4294967295 (invalid)
  65000: system.cpu.rename: [tid:0] Register 4294967295 (flat: 4294967295) (invalid) is ready.
  65000: system.cpu.rename: [tid:0] Looking up invalid arch reg 0, got phys reg 4294967295 (invalid)
  65000: system.cpu.rename: [tid:0] Register 4294967295 (flat: 4294967295) (invalid) is ready.
  65000: system.cpu.rename: [tid:0] Looking up invalid arch reg 0, got phys reg 4294967295 (invalid)
  65000: system.cpu.rename: [tid:0] Register 4294967295 (flat: 4294967295) (invalid) is ready.
  65000: system.cpu.rename: [tid:0] Looking up invalid arch reg 0, got phys reg 4294967295 (invalid)
  65000: system.cpu.rename: [tid:0] Register 4294967295 (flat: 4294967295) (invalid) is ready.
  65000: system.cpu.rename: [tid:0] Looking up invalid arch reg 0, got phys reg 4294967295 (invalid)
  65000: system.cpu.rename: [tid:0] Register 4294967295 (flat: 4294967295) (invalid) is ready.
  65000: global: Renamed reg rsp to physical reg 46 (46) old mapping was 40 (40)
  65000: system.cpu.rename: [tid:0] Renaming arch reg 4 (integer) to physical reg 46 (46).
  65000: system.cpu.rename: [tid:0] [sn:9] Adding instruction to history buffer (size=19).
  65000: global: Renamed reg condition_code[0] to physical reg 4735 (4735) old mapping was 4733 (4733)
  65000: system.cpu.rename: [tid:0] Renaming arch reg 0 (condition_code) to physical reg 9 (4735).
  65000: system.cpu.rename: [tid:0] [sn:9] Adding instruction to history buffer (size=20).
  65000: global: Renamed reg condition_code[1] to physical reg 4736 (4736) old mapping was 4734 (4734)
  65000: system.cpu.rename: [tid:0] Renaming arch reg 1 (condition_code) to physical reg 10 (4736).
  65000: system.cpu.rename: [tid:0] [sn:9] Adding instruction to history buffer (size=21).
  65000: system.cpu.rename: [tid:0] Renaming arch reg 0 (invalid) to physical reg 4294967295 (4294967295).
  65000: system.cpu.rename: [tid:0] [sn:9] Adding instruction to history buffer (size=22).
  65000: system.cpu.rename: [tid:0] Renaming arch reg 0 (invalid) to physical reg 4294967295 (4294967295).
  65000: system.cpu.rename: [tid:0] [sn:9] Adding instruction to history buffer (size=23).
  65000: system.cpu.rename: [tid:0] Renaming arch reg 0 (invalid) to physical reg 4294967295 (4294967295).
  65000: system.cpu.rename: [tid:0] [sn:9] Adding instruction to history buffer (size=24).
  65000: system.cpu.rename: [tid:0] Sending instructions to IEW.
  65000: system.cpu.rename: [tid:0] Processing instruction [sn:10] with PC (0x40101c=>0x40101e).(0=>1).
  65500: system.cpu.rename: Processing [tid:0]
  65500: system.cpu.rename: [tid:0] Free IQ: 559, Free ROB: 918, Free LQ: 132, Free SQ: 72, FreeRM 127(871 870 917 1834 127 8 4579)
  65500: system.cpu.rename: [tid:0] 10 instructions not yet in ROB
  65500: system.cpu.rename: calcFreeLQEntries: free lqEntries: 132, loadsInProgress: 1, loads dispatchedToLQ: 0
  65500: system.cpu.rename: [tid:0] Not blocked, so attempting to run stage.
  65500: system.cpu.rename: [tid:0] 10 available instructions to send iew.
  65500: system.cpu.rename: [tid:0] 10 insts pipelining from Rename | 0 insts dispatched to IQ last cycle.
  65500: system.cpu.rename: [tid:0] Sending instructions to IEW.
  65500: system.cpu.rename: calcFreeLQEntries: free lqEntries: 132, loadsInProgress: 1, loads dispatchedToLQ: 0
  65500: system.cpu.rename: [tid:0] Processing instruction [sn:11] with PC (0x40101e=>0x401020).(0=>1).
  65500: system.cpu.rename: [tid:0] Looking up invalid arch reg 0, got phys reg 4294967295 (invalid)
  65500: system.cpu.rename: [tid:0] Register 4294967295 (flat: 4294967295) (invalid) is ready.
  65500: system.cpu.rename: [tid:0] Looking up integer arch reg 0, got phys reg 43 (integer)
  65500: system.cpu.rename: [tid:0] Register 43 (flat: 43) (integer) is not ready.
  65500: system.cpu.rename: [tid:0] Looking up integer arch reg 17, got phys reg 45 (integer)
  65500: system.cpu.rename: [tid:0] Register 45 (flat: 45) (integer) is not ready.
  65500: system.cpu.rename: [tid:0] Looking up miscellaneous arch reg 155, got phys reg 155 (miscellaneous)
  65500: system.cpu.rename: [tid:0] Register 155 (flat: 0) (miscellaneous) is ready.
  65500: global: Renamed reg t1 to physical reg 47 (47) old mapping was 45 (45)
  65500: system.cpu.rename: [tid:0] Renaming arch reg 17 (integer) to physical reg 47 (47).
  65500: system.cpu.rename: [tid:0] [sn:11] Adding instruction to history buffer (size=25).
  65500: system.cpu.rename: [tid:0] Sending instructions to IEW.
  65500: system.cpu.rename: [tid:0] Processing instruction [sn:12] with PC (0x40101e=>0x401020).(1=>2).
  65500: system.cpu.rename: [tid:0] Looking up integer arch reg 17, got phys reg 47 (integer)
  65500: system.cpu.rename: [tid:0] Register 47 (flat: 47) (integer) is not ready.
  65500: system.cpu.rename: [tid:0] Looking up integer arch reg 0, got phys reg 43 (integer)
  65500: system.cpu.rename: [tid:0] Register 43 (flat: 43) (integer) is not ready.
  65500: system.cpu.rename: [tid:0] Looking up integer arch reg 17, got phys reg 47 (integer)
  65500: system.cpu.rename: [tid:0] Register 47 (flat: 47) (integer) is not ready.
  65500: system.cpu.rename: [tid:0] Looking up invalid arch reg 0, got phys reg 4294967295 (invalid)
  65500: system.cpu.rename: [tid:0] Register 4294967295 (flat: 4294967295) (invalid) is ready.
  65500: system.cpu.rename: [tid:0] Looking up invalid arch reg 0, got phys reg 4294967295 (invalid)
  65500: system.cpu.rename: [tid:0] Register 4294967295 (flat: 4294967295) (invalid) is ready.
  65500: system.cpu.rename: [tid:0] Looking up invalid arch reg 0, got phys reg 4294967295 (invalid)
  65500: system.cpu.rename: [tid:0] Register 4294967295 (flat: 4294967295) (invalid) is ready.
  65500: system.cpu.rename: [tid:0] Looking up invalid arch reg 0, got phys reg 4294967295 (invalid)
  65500: system.cpu.rename: [tid:0] Register 4294967295 (flat: 4294967295) (invalid) is ready.
  65500: system.cpu.rename: [tid:0] Looking up invalid arch reg 0, got phys reg 4294967295 (invalid)
  65500: system.cpu.rename: [tid:0] Register 4294967295 (flat: 4294967295) (invalid) is ready.
  65500: global: Renamed reg t1 to physical reg 48 (48) old mapping was 47 (47)
  65500: system.cpu.rename: [tid:0] Renaming arch reg 17 (integer) to physical reg 48 (48).
  65500: system.cpu.rename: [tid:0] [sn:12] Adding instruction to history buffer (size=26).
  65500: global: Renamed reg condition_code[0] to physical reg 4737 (4737) old mapping was 4735 (4735)
  65500: system.cpu.rename: [tid:0] Renaming arch reg 0 (condition_code) to physical reg 11 (4737).
  65500: system.cpu.rename: [tid:0] [sn:12] Adding instruction to history buffer (size=27).
  65500: global: Renamed reg condition_code[1] to physical reg 4738 (4738) old mapping was 4736 (4736)
  65500: system.cpu.rename: [tid:0] Renaming arch reg 1 (condition_code) to physical reg 12 (4738).
  65500: system.cpu.rename: [tid:0] [sn:12] Adding instruction to history buffer (size=28).
  65500: system.cpu.rename: [tid:0] Renaming arch reg 0 (invalid) to physical reg 4294967295 (4294967295).
  65500: system.cpu.rename: [tid:0] [sn:12] Adding instruction to history buffer (size=29).
  65500: system.cpu.rename: [tid:0] Renaming arch reg 0 (invalid) to physical reg 4294967295 (4294967295).
  65500: system.cpu.rename: [tid:0] [sn:12] Adding instruction to history buffer (size=30).
  65500: system.cpu.rename: [tid:0] Renaming arch reg 0 (invalid) to physical reg 4294967295 (4294967295).
  65500: system.cpu.rename: [tid:0] [sn:12] Adding instruction to history buffer (size=31).
  65500: system.cpu.rename: [tid:0] Sending instructions to IEW.
  65500: system.cpu.rename: calcFreeSQEntries: free sqEntries: 72, storesInProgress: 1, stores dispatchedToSQ: 0
  65500: system.cpu.rename: [tid:0] Processing instruction [sn:13] with PC (0x40101e=>0x401020).(2=>3).
  65500: system.cpu.rename: [tid:0] Looking up invalid arch reg 0, got phys reg 4294967295 (invalid)
  65500: system.cpu.rename: [tid:0] Register 4294967295 (flat: 4294967295) (invalid) is ready.
  65500: system.cpu.rename: [tid:0] Looking up integer arch reg 0, got phys reg 43 (integer)
  65500: system.cpu.rename: [tid:0] Register 43 (flat: 43) (integer) is not ready.
  65500: system.cpu.rename: [tid:0] Looking up integer arch reg 17, got phys reg 48 (integer)
  65500: system.cpu.rename: [tid:0] Register 48 (flat: 48) (integer) is not ready.
  65500: system.cpu.rename: [tid:0] Looking up miscellaneous arch reg 155, got phys reg 155 (miscellaneous)
  65500: system.cpu.rename: [tid:0] Register 155 (flat: 0) (miscellaneous) is ready.
  65500: system.cpu.rename: [tid:0] Sending instructions to IEW.
  65500: system.cpu.rename: calcFreeLQEntries: free lqEntries: 132, loadsInProgress: 2, loads dispatchedToLQ: 0
  65500: system.cpu.rename: [tid:0] Processing instruction [sn:14] with PC (0x401020=>0x401022).(0=>1).
  65500: system.cpu.rename: [tid:0] Looking up invalid arch reg 0, got phys reg 4294967295 (invalid)
  65500: system.cpu.rename: [tid:0] Register 4294967295 (flat: 4294967295) (invalid) is ready.
  65500: system.cpu.rename: [tid:0] Looking up integer arch reg 0, got phys reg 43 (integer)
  65500: system.cpu.rename: [tid:0] Register 43 (flat: 43) (integer) is not ready.
  65500: system.cpu.rename: [tid:0] Looking up integer arch reg 17, got phys reg 48 (integer)
  65500: system.cpu.rename: [tid:0] Register 48 (flat: 48) (integer) is not ready.
  65500: system.cpu.rename: [tid:0] Looking up miscellaneous arch reg 155, got phys reg 155 (miscellaneous)
  65500: system.cpu.rename: [tid:0] Register 155 (flat: 0) (miscellaneous) is ready.
  65500: global: Renamed reg t1 to physical reg 49 (49) old mapping was 48 (48)
  65500: system.cpu.rename: [tid:0] Renaming arch reg 17 (integer) to physical reg 49 (49).
  65500: system.cpu.rename: [tid:0] [sn:14] Adding instruction to history buffer (size=32).
  65500: system.cpu.rename: [tid:0] Sending instructions to IEW.
  65500: system.cpu.rename: [tid:0] Processing instruction [sn:15] with PC (0x401020=>0x401022).(1=>2).
  65500: system.cpu.rename: [tid:0] Looking up integer arch reg 17, got phys reg 49 (integer)
  65500: system.cpu.rename: [tid:0] Register 49 (flat: 49) (integer) is not ready.
  65500: system.cpu.rename: [tid:0] Looking up integer arch reg 0, got phys reg 43 (integer)
  65500: system.cpu.rename: [tid:0] Register 43 (flat: 43) (integer) is not ready.
  65500: system.cpu.rename: [tid:0] Looking up integer arch reg 17, got phys reg 49 (integer)
  65500: system.cpu.rename: [tid:0] Register 49 (flat: 49) (integer) is not ready.
  65500: system.cpu.rename: [tid:0] Looking up invalid arch reg 0, got phys reg 4294967295 (invalid)
  65500: system.cpu.rename: [tid:0] Register 4294967295 (flat: 4294967295) (invalid) is ready.
  65500: system.cpu.rename: [tid:0] Looking up invalid arch reg 0, got phys reg 4294967295 (invalid)
  65500: system.cpu.rename: [tid:0] Register 4294967295 (flat: 4294967295) (invalid) is ready.
  65500: system.cpu.rename: [tid:0] Looking up invalid arch reg 0, got phys reg 4294967295 (invalid)
  65500: system.cpu.rename: [tid:0] Register 4294967295 (flat: 4294967295) (invalid) is ready.
  65500: system.cpu.rename: [tid:0] Looking up invalid arch reg 0, got phys reg 4294967295 (invalid)
  65500: system.cpu.rename: [tid:0] Register 4294967295 (flat: 4294967295) (invalid) is ready.
  65500: system.cpu.rename: [tid:0] Looking up invalid arch reg 0, got phys reg 4294967295 (invalid)
  65500: system.cpu.rename: [tid:0] Register 4294967295 (flat: 4294967295) (invalid) is ready.
  65500: global: Renamed reg t1 to physical reg 50 (50) old mapping was 49 (49)
  65500: system.cpu.rename: [tid:0] Renaming arch reg 17 (integer) to physical reg 50 (50).
  65500: system.cpu.rename: [tid:0] [sn:15] Adding instruction to history buffer (size=33).
  65500: global: Renamed reg condition_code[0] to physical reg 4739 (4739) old mapping was 4737 (4737)
  65500: system.cpu.rename: [tid:0] Renaming arch reg 0 (condition_code) to physical reg 13 (4739).
  65500: system.cpu.rename: [tid:0] [sn:15] Adding instruction to history buffer (size=34).
  65500: global: Renamed reg condition_code[1] to physical reg 4740 (4740) old mapping was 4738 (4738)
  65500: system.cpu.rename: [tid:0] Renaming arch reg 1 (condition_code) to physical reg 14 (4740).
  65500: system.cpu.rename: [tid:0] [sn:15] Adding instruction to history buffer (size=35).
  65500: system.cpu.rename: [tid:0] Renaming arch reg 0 (invalid) to physical reg 4294967295 (4294967295).
  65500: system.cpu.rename: [tid:0] [sn:15] Adding instruction to history buffer (size=36).
  65500: system.cpu.rename: [tid:0] Renaming arch reg 0 (invalid) to physical reg 4294967295 (4294967295).
  65500: system.cpu.rename: [tid:0] [sn:15] Adding instruction to history buffer (size=37).
  65500: system.cpu.rename: [tid:0] Renaming arch reg 0 (invalid) to physical reg 4294967295 (4294967295).
  65500: system.cpu.rename: [tid:0] [sn:15] Adding instruction to history buffer (size=38).
  65500: system.cpu.rename: [tid:0] Sending instructions to IEW.
  65500: system.cpu.rename: calcFreeSQEntries: free sqEntries: 72, storesInProgress: 2, stores dispatchedToSQ: 0
  65500: system.cpu.rename: [tid:0] Processing instruction [sn:16] with PC (0x401020=>0x401022).(2=>3).
  65500: system.cpu.rename: [tid:0] Looking up invalid arch reg 0, got phys reg 4294967295 (invalid)
  65500: system.cpu.rename: [tid:0] Register 4294967295 (flat: 4294967295) (invalid) is ready.
  65500: system.cpu.rename: [tid:0] Looking up integer arch reg 0, got phys reg 43 (integer)
  65500: system.cpu.rename: [tid:0] Register 43 (flat: 43) (integer) is not ready.
  65500: system.cpu.rename: [tid:0] Looking up integer arch reg 17, got phys reg 50 (integer)
  65500: system.cpu.rename: [tid:0] Register 50 (flat: 50) (integer) is not ready.
  65500: system.cpu.rename: [tid:0] Looking up miscellaneous arch reg 155, got phys reg 155 (miscellaneous)
  65500: system.cpu.rename: [tid:0] Register 155 (flat: 0) (miscellaneous) is ready.
  65500: system.cpu.rename: [tid:0] Sending instructions to IEW.
  65500: system.cpu.rename: calcFreeLQEntries: free lqEntries: 132, loadsInProgress: 3, loads dispatchedToLQ: 0
  65500: system.cpu.rename: [tid:0] Processing instruction [sn:17] with PC (0x401022=>0x401024).(0=>1).
  65500: system.cpu.rename: [tid:0] Looking up invalid arch reg 0, got phys reg 4294967295 (invalid)
  65500: system.cpu.rename: [tid:0] Register 4294967295 (flat: 4294967295) (invalid) is ready.
  65500: system.cpu.rename: [tid:0] Looking up integer arch reg 0, got phys reg 43 (integer)
  65500: system.cpu.rename: [tid:0] Register 43 (flat: 43) (integer) is not ready.
  65500: system.cpu.rename: [tid:0] Looking up integer arch reg 17, got phys reg 50 (integer)
  65500: system.cpu.rename: [tid:0] Register 50 (flat: 50) (integer) is not ready.
  65500: system.cpu.rename: [tid:0] Looking up miscellaneous arch reg 155, got phys reg 155 (miscellaneous)
  65500: system.cpu.rename: [tid:0] Register 155 (flat: 0) (miscellaneous) is ready.
  65500: global: Renamed reg t1 to physical reg 51 (51) old mapping was 50 (50)
  65500: system.cpu.rename: [tid:0] Renaming arch reg 17 (integer) to physical reg 51 (51).
  65500: system.cpu.rename: [tid:0] [sn:17] Adding instruction to history buffer (size=39).
  65500: system.cpu.rename: [tid:0] Sending instructions to IEW.
  65500: system.cpu.rename: [tid:0] Processing instruction [sn:18] with PC (0x401022=>0x401024).(1=>2).
  65500: system.cpu.rename: [tid:0] Looking up integer arch reg 17, got phys reg 51 (integer)
  65500: system.cpu.rename: [tid:0] Register 51 (flat: 51) (integer) is not ready.
  65500: system.cpu.rename: [tid:0] Looking up integer arch reg 0, got phys reg 43 (integer)
  65500: system.cpu.rename: [tid:0] Register 43 (flat: 43) (integer) is not ready.
  65500: system.cpu.rename: [tid:0] Looking up integer arch reg 17, got phys reg 51 (integer)
  65500: system.cpu.rename: [tid:0] Register 51 (flat: 51) (integer) is not ready.
  65500: system.cpu.rename: [tid:0] Looking up invalid arch reg 0, got phys reg 4294967295 (invalid)
  65500: system.cpu.rename: [tid:0] Register 4294967295 (flat: 4294967295) (invalid) is ready.
  65500: system.cpu.rename: [tid:0] Looking up invalid arch reg 0, got phys reg 4294967295 (invalid)
  65500: system.cpu.rename: [tid:0] Register 4294967295 (flat: 4294967295) (invalid) is ready.
  65500: system.cpu.rename: [tid:0] Looking up invalid arch reg 0, got phys reg 4294967295 (invalid)
  65500: system.cpu.rename: [tid:0] Register 4294967295 (flat: 4294967295) (invalid) is ready.
  65500: system.cpu.rename: [tid:0] Looking up invalid arch reg 0, got phys reg 4294967295 (invalid)
  65500: system.cpu.rename: [tid:0] Register 4294967295 (flat: 4294967295) (invalid) is ready.
  65500: system.cpu.rename: [tid:0] Looking up invalid arch reg 0, got phys reg 4294967295 (invalid)
  65500: system.cpu.rename: [tid:0] Register 4294967295 (flat: 4294967295) (invalid) is ready.
  65500: global: Renamed reg t1 to physical reg 52 (52) old mapping was 51 (51)
  65500: system.cpu.rename: [tid:0] Renaming arch reg 17 (integer) to physical reg 52 (52).
  65500: system.cpu.rename: [tid:0] [sn:18] Adding instruction to history buffer (size=40).
  65500: global: Renamed reg condition_code[0] to physical reg 4741 (4741) old mapping was 4739 (4739)
  65500: system.cpu.rename: [tid:0] Renaming arch reg 0 (condition_code) to physical reg 15 (4741).
  65500: system.cpu.rename: [tid:0] [sn:18] Adding instruction to history buffer (size=41).
  65500: global: Renamed reg condition_code[1] to physical reg 4742 (4742) old mapping was 4740 (4740)
  65500: system.cpu.rename: [tid:0] Renaming arch reg 1 (condition_code) to physical reg 16 (4742).
  65500: system.cpu.rename: [tid:0] [sn:18] Adding instruction to history buffer (size=42).
  65500: system.cpu.rename: [tid:0] Renaming arch reg 0 (invalid) to physical reg 4294967295 (4294967295).
  65500: system.cpu.rename: [tid:0] [sn:18] Adding instruction to history buffer (size=43).
  65500: system.cpu.rename: [tid:0] Renaming arch reg 0 (invalid) to physical reg 4294967295 (4294967295).
  65500: system.cpu.rename: [tid:0] [sn:18] Adding instruction to history buffer (size=44).
  65500: system.cpu.rename: [tid:0] Renaming arch reg 0 (invalid) to physical reg 4294967295 (4294967295).
  65500: system.cpu.rename: [tid:0] [sn:18] Adding instruction to history buffer (size=45).
  65500: system.cpu.rename: [tid:0] Sending instructions to IEW.
  65500: system.cpu.rename: calcFreeSQEntries: free sqEntries: 72, storesInProgress: 3, stores dispatchedToSQ: 0
  65500: system.cpu.rename: [tid:0] Processing instruction [sn:19] with PC (0x401022=>0x401024).(2=>3).
  65500: system.cpu.rename: [tid:0] Looking up invalid arch reg 0, got phys reg 4294967295 (invalid)
  65500: system.cpu.rename: [tid:0] Register 4294967295 (flat: 4294967295) (invalid) is ready.
  65500: system.cpu.rename: [tid:0] Looking up integer arch reg 0, got phys reg 43 (integer)
  65500: system.cpu.rename: [tid:0] Register 43 (flat: 43) (integer) is not ready.
  65500: system.cpu.rename: [tid:0] Looking up integer arch reg 17, got phys reg 52 (integer)
  65500: system.cpu.rename: [tid:0] Register 52 (flat: 52) (integer) is not ready.
  65500: system.cpu.rename: [tid:0] Looking up miscellaneous arch reg 155, got phys reg 155 (miscellaneous)
  65500: system.cpu.rename: [tid:0] Register 155 (flat: 0) (miscellaneous) is ready.
  65500: system.cpu.rename: [tid:0] Sending instructions to IEW.
  65500: system.cpu.rename: calcFreeLQEntries: free lqEntries: 132, loadsInProgress: 4, loads dispatchedToLQ: 0
  65500: system.cpu.rename: [tid:0] Processing instruction [sn:20] with PC (0x401024=>0x401026).(0=>1).
  65500: system.cpu.rename: [tid:0] Looking up invalid arch reg 0, got phys reg 4294967295 (invalid)
  65500: system.cpu.rename: [tid:0] Register 4294967295 (flat: 4294967295) (invalid) is ready.
  65500: system.cpu.rename: [tid:0] Looking up integer arch reg 0, got phys reg 43 (integer)
  65500: system.cpu.rename: [tid:0] Register 43 (flat: 43) (integer) is not ready.
  65500: system.cpu.rename: [tid:0] Looking up integer arch reg 17, got phys reg 52 (integer)
  65500: system.cpu.rename: [tid:0] Register 52 (flat: 52) (integer) is not ready.
  65500: system.cpu.rename: [tid:0] Looking up miscellaneous arch reg 155, got phys reg 155 (miscellaneous)
  65500: system.cpu.rename: [tid:0] Register 155 (flat: 0) (miscellaneous) is ready.
  65500: global: Renamed reg t1 to physical reg 53 (53) old mapping was 52 (52)
  65500: system.cpu.rename: [tid:0] Renaming arch reg 17 (integer) to physical reg 53 (53).
  65500: system.cpu.rename: [tid:0] [sn:20] Adding instruction to history buffer (size=46).
  66000: system.cpu.rename: Processing [tid:0]
  66000: system.cpu.rename: [tid:0] Free IQ: 559, Free ROB: 908, Free LQ: 132, Free SQ: 72, FreeRM 127(864 870 917 1834 127 8 4573)
  66000: system.cpu.rename: [tid:0] 20 instructions not yet in ROB
  66000: system.cpu.rename: calcFreeLQEntries: free lqEntries: 132, loadsInProgress: 5, loads dispatchedToLQ: 0
  66000: system.cpu.rename: [tid:0] Not blocked, so attempting to run stage.
  66000: system.cpu.rename: [tid:0] 10 available instructions to send iew.
  66000: system.cpu.rename: [tid:0] 20 insts pipelining from Rename | 0 insts dispatched to IQ last cycle.
  66000: system.cpu.rename: [tid:0] Sending instructions to IEW.
  66000: system.cpu.rename: [tid:0] Processing instruction [sn:21] with PC (0x401024=>0x401026).(1=>2).
  66000: system.cpu.rename: [tid:0] Looking up integer arch reg 17, got phys reg 53 (integer)
  66000: system.cpu.rename: [tid:0] Register 53 (flat: 53) (integer) is not ready.
  66000: system.cpu.rename: [tid:0] Looking up integer arch reg 0, got phys reg 43 (integer)
  66000: system.cpu.rename: [tid:0] Register 43 (flat: 43) (integer) is not ready.
  66000: system.cpu.rename: [tid:0] Looking up integer arch reg 17, got phys reg 53 (integer)
  66000: system.cpu.rename: [tid:0] Register 53 (flat: 53) (integer) is not ready.
  66000: system.cpu.rename: [tid:0] Looking up invalid arch reg 0, got phys reg 4294967295 (invalid)
  66000: system.cpu.rename: [tid:0] Register 4294967295 (flat: 4294967295) (invalid) is ready.
  66000: system.cpu.rename: [tid:0] Looking up invalid arch reg 0, got phys reg 4294967295 (invalid)
  66000: system.cpu.rename: [tid:0] Register 4294967295 (flat: 4294967295) (invalid) is ready.
  66000: system.cpu.rename: [tid:0] Looking up invalid arch reg 0, got phys reg 4294967295 (invalid)
  66000: system.cpu.rename: [tid:0] Register 4294967295 (flat: 4294967295) (invalid) is ready.
  66000: system.cpu.rename: [tid:0] Looking up invalid arch reg 0, got phys reg 4294967295 (invalid)
  66000: system.cpu.rename: [tid:0] Register 4294967295 (flat: 4294967295) (invalid) is ready.
  66000: system.cpu.rename: [tid:0] Looking up invalid arch reg 0, got phys reg 4294967295 (invalid)
  66000: system.cpu.rename: [tid:0] Register 4294967295 (flat: 4294967295) (invalid) is ready.
  66000: global: Renamed reg t1 to physical reg 54 (54) old mapping was 53 (53)
  66000: system.cpu.rename: [tid:0] Renaming arch reg 17 (integer) to physical reg 54 (54).
  66000: system.cpu.rename: [tid:0] [sn:21] Adding instruction to history buffer (size=47).
  66000: global: Renamed reg condition_code[0] to physical reg 4743 (4743) old mapping was 4741 (4741)
  66000: system.cpu.rename: [tid:0] Renaming arch reg 0 (condition_code) to physical reg 17 (4743).
  66000: system.cpu.rename: [tid:0] [sn:21] Adding instruction to history buffer (size=48).
  66000: global: Renamed reg condition_code[1] to physical reg 4744 (4744) old mapping was 4742 (4742)
  66000: system.cpu.rename: [tid:0] Renaming arch reg 1 (condition_code) to physical reg 18 (4744).
  66000: system.cpu.rename: [tid:0] [sn:21] Adding instruction to history buffer (size=49).
  66000: system.cpu.rename: [tid:0] Renaming arch reg 0 (invalid) to physical reg 4294967295 (4294967295).
  66000: system.cpu.rename: [tid:0] [sn:21] Adding instruction to history buffer (size=50).
  66000: system.cpu.rename: [tid:0] Renaming arch reg 0 (invalid) to physical reg 4294967295 (4294967295).
  66000: system.cpu.rename: [tid:0] [sn:21] Adding instruction to history buffer (size=51).
  66000: system.cpu.rename: [tid:0] Renaming arch reg 0 (invalid) to physical reg 4294967295 (4294967295).
  66000: system.cpu.rename: [tid:0] [sn:21] Adding instruction to history buffer (size=52).
  66000: system.cpu.rename: [tid:0] Sending instructions to IEW.
  66000: system.cpu.rename: calcFreeSQEntries: free sqEntries: 72, storesInProgress: 4, stores dispatchedToSQ: 0
  66000: system.cpu.rename: [tid:0] Processing instruction [sn:22] with PC (0x401024=>0x401026).(2=>3).
  66000: system.cpu.rename: [tid:0] Looking up invalid arch reg 0, got phys reg 4294967295 (invalid)
  66000: system.cpu.rename: [tid:0] Register 4294967295 (flat: 4294967295) (invalid) is ready.
  66000: system.cpu.rename: [tid:0] Looking up integer arch reg 0, got phys reg 43 (integer)
  66000: system.cpu.rename: [tid:0] Register 43 (flat: 43) (integer) is not ready.
  66000: system.cpu.rename: [tid:0] Looking up integer arch reg 17, got phys reg 54 (integer)
  66000: system.cpu.rename: [tid:0] Register 54 (flat: 54) (integer) is not ready.
  66000: system.cpu.rename: [tid:0] Looking up miscellaneous arch reg 155, got phys reg 155 (miscellaneous)
  66000: system.cpu.rename: [tid:0] Register 155 (flat: 0) (miscellaneous) is ready.
  66000: system.cpu.rename: [tid:0] Sending instructions to IEW.
  66000: system.cpu.rename: calcFreeLQEntries: free lqEntries: 132, loadsInProgress: 5, loads dispatchedToLQ: 0
  66000: system.cpu.rename: [tid:0] Processing instruction [sn:23] with PC (0x401026=>0x401028).(0=>1).
  66000: system.cpu.rename: [tid:0] Looking up invalid arch reg 0, got phys reg 4294967295 (invalid)
  66000: system.cpu.rename: [tid:0] Register 4294967295 (flat: 4294967295) (invalid) is ready.
  66000: system.cpu.rename: [tid:0] Looking up integer arch reg 0, got phys reg 43 (integer)
  66000: system.cpu.rename: [tid:0] Register 43 (flat: 43) (integer) is not ready.
  66000: system.cpu.rename: [tid:0] Looking up integer arch reg 17, got phys reg 54 (integer)
  66000: system.cpu.rename: [tid:0] Register 54 (flat: 54) (integer) is not ready.
  66000: system.cpu.rename: [tid:0] Looking up miscellaneous arch reg 155, got phys reg 155 (miscellaneous)
  66000: system.cpu.rename: [tid:0] Register 155 (flat: 0) (miscellaneous) is ready.
  66000: global: Renamed reg t1 to physical reg 55 (55) old mapping was 54 (54)
  66000: system.cpu.rename: [tid:0] Renaming arch reg 17 (integer) to physical reg 55 (55).
  66000: system.cpu.rename: [tid:0] [sn:23] Adding instruction to history buffer (size=53).
  66000: system.cpu.rename: [tid:0] Sending instructions to IEW.
  66000: system.cpu.rename: [tid:0] Processing instruction [sn:24] with PC (0x401026=>0x401028).(1=>2).
  66000: system.cpu.rename: [tid:0] Looking up integer arch reg 17, got phys reg 55 (integer)
  66000: system.cpu.rename: [tid:0] Register 55 (flat: 55) (integer) is not ready.
  66000: system.cpu.rename: [tid:0] Looking up integer arch reg 0, got phys reg 43 (integer)
  66000: system.cpu.rename: [tid:0] Register 43 (flat: 43) (integer) is not ready.
  66000: system.cpu.rename: [tid:0] Looking up integer arch reg 17, got phys reg 55 (integer)
  66000: system.cpu.rename: [tid:0] Register 55 (flat: 55) (integer) is not ready.
  66000: system.cpu.rename: [tid:0] Looking up invalid arch reg 0, got phys reg 4294967295 (invalid)
  66000: system.cpu.rename: [tid:0] Register 4294967295 (flat: 4294967295) (invalid) is ready.
  66000: system.cpu.rename: [tid:0] Looking up invalid arch reg 0, got phys reg 4294967295 (invalid)
  66000: system.cpu.rename: [tid:0] Register 4294967295 (flat: 4294967295) (invalid) is ready.
  66000: system.cpu.rename: [tid:0] Looking up invalid arch reg 0, got phys reg 4294967295 (invalid)
  66000: system.cpu.rename: [tid:0] Register 4294967295 (flat: 4294967295) (invalid) is ready.
  66000: system.cpu.rename: [tid:0] Looking up invalid arch reg 0, got phys reg 4294967295 (invalid)
  66000: system.cpu.rename: [tid:0] Register 4294967295 (flat: 4294967295) (invalid) is ready.
  66000: system.cpu.rename: [tid:0] Looking up invalid arch reg 0, got phys reg 4294967295 (invalid)
  66000: system.cpu.rename: [tid:0] Register 4294967295 (flat: 4294967295) (invalid) is ready.
  66000: global: Renamed reg t1 to physical reg 56 (56) old mapping was 55 (55)
  66000: system.cpu.rename: [tid:0] Renaming arch reg 17 (integer) to physical reg 56 (56).
  66000: system.cpu.rename: [tid:0] [sn:24] Adding instruction to history buffer (size=54).
  66000: global: Renamed reg condition_code[0] to physical reg 4745 (4745) old mapping was 4743 (4743)
  66000: system.cpu.rename: [tid:0] Renaming arch reg 0 (condition_code) to physical reg 19 (4745).
  66000: system.cpu.rename: [tid:0] [sn:24] Adding instruction to history buffer (size=55).
  66000: global: Renamed reg condition_code[1] to physical reg 4746 (4746) old mapping was 4744 (4744)
  66000: system.cpu.rename: [tid:0] Renaming arch reg 1 (condition_code) to physical reg 20 (4746).
  66000: system.cpu.rename: [tid:0] [sn:24] Adding instruction to history buffer (size=56).
  66000: system.cpu.rename: [tid:0] Renaming arch reg 0 (invalid) to physical reg 4294967295 (4294967295).
  66000: system.cpu.rename: [tid:0] [sn:24] Adding instruction to history buffer (size=57).
  66000: system.cpu.rename: [tid:0] Renaming arch reg 0 (invalid) to physical reg 4294967295 (4294967295).
  66000: system.cpu.rename: [tid:0] [sn:24] Adding instruction to history buffer (size=58).
  66000: system.cpu.rename: [tid:0] Renaming arch reg 0 (invalid) to physical reg 4294967295 (4294967295).
  66000: system.cpu.rename: [tid:0] [sn:24] Adding instruction to history buffer (size=59).
  66000: system.cpu.rename: [tid:0] Sending instructions to IEW.
  66000: system.cpu.rename: calcFreeSQEntries: free sqEntries: 72, storesInProgress: 5, stores dispatchedToSQ: 0
  66000: system.cpu.rename: [tid:0] Processing instruction [sn:25] with PC (0x401026=>0x401028).(2=>3).
  66000: system.cpu.rename: [tid:0] Looking up invalid arch reg 0, got phys reg 4294967295 (invalid)
  66000: system.cpu.rename: [tid:0] Register 4294967295 (flat: 4294967295) (invalid) is ready.
  66000: system.cpu.rename: [tid:0] Looking up integer arch reg 0, got phys reg 43 (integer)
  66000: system.cpu.rename: [tid:0] Register 43 (flat: 43) (integer) is not ready.
  66000: system.cpu.rename: [tid:0] Looking up integer arch reg 17, got phys reg 56 (integer)
  66000: system.cpu.rename: [tid:0] Register 56 (flat: 56) (integer) is not ready.
  66000: system.cpu.rename: [tid:0] Looking up miscellaneous arch reg 155, got phys reg 155 (miscellaneous)
  66000: system.cpu.rename: [tid:0] Register 155 (flat: 0) (miscellaneous) is ready.
  66000: system.cpu.rename: [tid:0] Sending instructions to IEW.
  66000: system.cpu.rename: calcFreeLQEntries: free lqEntries: 132, loadsInProgress: 6, loads dispatchedToLQ: 0
  66000: system.cpu.rename: [tid:0] Processing instruction [sn:26] with PC (0x401028=>0x40102a).(0=>1).
  66000: system.cpu.rename: [tid:0] Looking up invalid arch reg 0, got phys reg 4294967295 (invalid)
  66000: system.cpu.rename: [tid:0] Register 4294967295 (flat: 4294967295) (invalid) is ready.
  66000: system.cpu.rename: [tid:0] Looking up integer arch reg 0, got phys reg 43 (integer)
  66000: system.cpu.rename: [tid:0] Register 43 (flat: 43) (integer) is not ready.
  66000: system.cpu.rename: [tid:0] Looking up integer arch reg 17, got phys reg 56 (integer)
  66000: system.cpu.rename: [tid:0] Register 56 (flat: 56) (integer) is not ready.
  66000: system.cpu.rename: [tid:0] Looking up miscellaneous arch reg 155, got phys reg 155 (miscellaneous)
  66000: system.cpu.rename: [tid:0] Register 155 (flat: 0) (miscellaneous) is ready.
  66000: global: Renamed reg t1 to physical reg 57 (57) old mapping was 56 (56)
  66000: system.cpu.rename: [tid:0] Renaming arch reg 17 (integer) to physical reg 57 (57).
  66000: system.cpu.rename: [tid:0] [sn:26] Adding instruction to history buffer (size=60).
  66000: system.cpu.rename: [tid:0] Sending instructions to IEW.
  66000: system.cpu.rename: [tid:0] Processing instruction [sn:27] with PC (0x401028=>0x40102a).(1=>2).
  66000: system.cpu.rename: [tid:0] Looking up integer arch reg 17, got phys reg 57 (integer)
  66000: system.cpu.rename: [tid:0] Register 57 (flat: 57) (integer) is not ready.
  66000: system.cpu.rename: [tid:0] Looking up integer arch reg 0, got phys reg 43 (integer)
  66000: system.cpu.rename: [tid:0] Register 43 (flat: 43) (integer) is not ready.
  66000: system.cpu.rename: [tid:0] Looking up integer arch reg 17, got phys reg 57 (integer)
  66000: system.cpu.rename: [tid:0] Register 57 (flat: 57) (integer) is not ready.
  66000: system.cpu.rename: [tid:0] Looking up invalid arch reg 0, got phys reg 4294967295 (invalid)
  66000: system.cpu.rename: [tid:0] Register 4294967295 (flat: 4294967295) (invalid) is ready.
  66000: system.cpu.rename: [tid:0] Looking up invalid arch reg 0, got phys reg 4294967295 (invalid)
  66000: system.cpu.rename: [tid:0] Register 4294967295 (flat: 4294967295) (invalid) is ready.
  66000: system.cpu.rename: [tid:0] Looking up invalid arch reg 0, got phys reg 4294967295 (invalid)
  66000: system.cpu.rename: [tid:0] Register 4294967295 (flat: 4294967295) (invalid) is ready.
  66000: system.cpu.rename: [tid:0] Looking up invalid arch reg 0, got phys reg 4294967295 (invalid)
  66000: system.cpu.rename: [tid:0] Register 4294967295 (flat: 4294967295) (invalid) is ready.
  66000: system.cpu.rename: [tid:0] Looking up invalid arch reg 0, got phys reg 4294967295 (invalid)
  66000: system.cpu.rename: [tid:0] Register 4294967295 (flat: 4294967295) (invalid) is ready.
  66000: global: Renamed reg t1 to physical reg 58 (58) old mapping was 57 (57)
  66000: system.cpu.rename: [tid:0] Renaming arch reg 17 (integer) to physical reg 58 (58).
  66000: system.cpu.rename: [tid:0] [sn:27] Adding instruction to history buffer (size=61).
  66000: global: Renamed reg condition_code[0] to physical reg 4747 (4747) old mapping was 4745 (4745)
  66000: system.cpu.rename: [tid:0] Renaming arch reg 0 (condition_code) to physical reg 21 (4747).
  66000: system.cpu.rename: [tid:0] [sn:27] Adding instruction to history buffer (size=62).
  66000: global: Renamed reg condition_code[1] to physical reg 4748 (4748) old mapping was 4746 (4746)
  66000: system.cpu.rename: [tid:0] Renaming arch reg 1 (condition_code) to physical reg 22 (4748).
  66000: system.cpu.rename: [tid:0] [sn:27] Adding instruction to history buffer (size=63).
  66000: system.cpu.rename: [tid:0] Renaming arch reg 0 (invalid) to physical reg 4294967295 (4294967295).
  66000: system.cpu.rename: [tid:0] [sn:27] Adding instruction to history buffer (size=64).
  66000: system.cpu.rename: [tid:0] Renaming arch reg 0 (invalid) to physical reg 4294967295 (4294967295).
  66000: system.cpu.rename: [tid:0] [sn:27] Adding instruction to history buffer (size=65).
  66000: system.cpu.rename: [tid:0] Renaming arch reg 0 (invalid) to physical reg 4294967295 (4294967295).
  66000: system.cpu.rename: [tid:0] [sn:27] Adding instruction to history buffer (size=66).
  66000: system.cpu.rename: [tid:0] Sending instructions to IEW.
  66000: system.cpu.rename: calcFreeSQEntries: free sqEntries: 72, storesInProgress: 6, stores dispatchedToSQ: 0
  66000: system.cpu.rename: [tid:0] Processing instruction [sn:28] with PC (0x401028=>0x40102a).(2=>3).
  66000: system.cpu.rename: [tid:0] Looking up invalid arch reg 0, got phys reg 4294967295 (invalid)
  66000: system.cpu.rename: [tid:0] Register 4294967295 (flat: 4294967295) (invalid) is ready.
  66000: system.cpu.rename: [tid:0] Looking up integer arch reg 0, got phys reg 43 (integer)
  66000: system.cpu.rename: [tid:0] Register 43 (flat: 43) (integer) is not ready.
  66000: system.cpu.rename: [tid:0] Looking up integer arch reg 17, got phys reg 58 (integer)
  66000: system.cpu.rename: [tid:0] Register 58 (flat: 58) (integer) is not ready.
  66000: system.cpu.rename: [tid:0] Looking up miscellaneous arch reg 155, got phys reg 155 (miscellaneous)
  66000: system.cpu.rename: [tid:0] Register 155 (flat: 0) (miscellaneous) is ready.
  66000: system.cpu.rename: [tid:0] Sending instructions to IEW.
  66000: system.cpu.rename: calcFreeLQEntries: free lqEntries: 132, loadsInProgress: 7, loads dispatchedToLQ: 0
  66000: system.cpu.rename: [tid:0] Processing instruction [sn:29] with PC (0x40102a=>0x40102c).(0=>1).
  66000: system.cpu.rename: [tid:0] Looking up invalid arch reg 0, got phys reg 4294967295 (invalid)
  66000: system.cpu.rename: [tid:0] Register 4294967295 (flat: 4294967295) (invalid) is ready.
  66000: system.cpu.rename: [tid:0] Looking up integer arch reg 0, got phys reg 43 (integer)
  66000: system.cpu.rename: [tid:0] Register 43 (flat: 43) (integer) is not ready.
  66000: system.cpu.rename: [tid:0] Looking up integer arch reg 17, got phys reg 58 (integer)
  66000: system.cpu.rename: [tid:0] Register 58 (flat: 58) (integer) is not ready.
  66000: system.cpu.rename: [tid:0] Looking up miscellaneous arch reg 155, got phys reg 155 (miscellaneous)
  66000: system.cpu.rename: [tid:0] Register 155 (flat: 0) (miscellaneous) is ready.
  66000: global: Renamed reg t1 to physical reg 59 (59) old mapping was 58 (58)
  66000: system.cpu.rename: [tid:0] Renaming arch reg 17 (integer) to physical reg 59 (59).
  66000: system.cpu.rename: [tid:0] [sn:29] Adding instruction to history buffer (size=67).
  66000: system.cpu.rename: [tid:0] Sending instructions to IEW.
  66000: system.cpu.rename: [tid:0] Processing instruction [sn:30] with PC (0x40102a=>0x40102c).(1=>2).
  66000: system.cpu.rename: [tid:0] Looking up integer arch reg 17, got phys reg 59 (integer)
  66000: system.cpu.rename: [tid:0] Register 59 (flat: 59) (integer) is not ready.
  66000: system.cpu.rename: [tid:0] Looking up integer arch reg 0, got phys reg 43 (integer)
  66000: system.cpu.rename: [tid:0] Register 43 (flat: 43) (integer) is not ready.
  66000: system.cpu.rename: [tid:0] Looking up integer arch reg 17, got phys reg 59 (integer)
  66000: system.cpu.rename: [tid:0] Register 59 (flat: 59) (integer) is not ready.
  66000: system.cpu.rename: [tid:0] Looking up invalid arch reg 0, got phys reg 4294967295 (invalid)
  66000: system.cpu.rename: [tid:0] Register 4294967295 (flat: 4294967295) (invalid) is ready.
  66000: system.cpu.rename: [tid:0] Looking up invalid arch reg 0, got phys reg 4294967295 (invalid)
  66000: system.cpu.rename: [tid:0] Register 4294967295 (flat: 4294967295) (invalid) is ready.
  66000: system.cpu.rename: [tid:0] Looking up invalid arch reg 0, got phys reg 4294967295 (invalid)
  66000: system.cpu.rename: [tid:0] Register 4294967295 (flat: 4294967295) (invalid) is ready.
  66000: system.cpu.rename: [tid:0] Looking up invalid arch reg 0, got phys reg 4294967295 (invalid)
  66000: system.cpu.rename: [tid:0] Register 4294967295 (flat: 4294967295) (invalid) is ready.
  66000: system.cpu.rename: [tid:0] Looking up invalid arch reg 0, got phys reg 4294967295 (invalid)
  66000: system.cpu.rename: [tid:0] Register 4294967295 (flat: 4294967295) (invalid) is ready.
  66000: global: Renamed reg t1 to physical reg 60 (60) old mapping was 59 (59)
  66000: system.cpu.rename: [tid:0] Renaming arch reg 17 (integer) to physical reg 60 (60).
  66000: system.cpu.rename: [tid:0] [sn:30] Adding instruction to history buffer (size=68).
  66000: global: Renamed reg condition_code[0] to physical reg 4749 (4749) old mapping was 4747 (4747)
  66000: system.cpu.rename: [tid:0] Renaming arch reg 0 (condition_code) to physical reg 23 (4749).
  66000: system.cpu.rename: [tid:0] [sn:30] Adding instruction to history buffer (size=69).
  66000: global: Renamed reg condition_code[1] to physical reg 4750 (4750) old mapping was 4748 (4748)
  66000: system.cpu.rename: [tid:0] Renaming arch reg 1 (condition_code) to physical reg 24 (4750).
  66000: system.cpu.rename: [tid:0] [sn:30] Adding instruction to history buffer (size=70).
  66000: system.cpu.rename: [tid:0] Renaming arch reg 0 (invalid) to physical reg 4294967295 (4294967295).
  66000: system.cpu.rename: [tid:0] [sn:30] Adding instruction to history buffer (size=71).
  66000: system.cpu.rename: [tid:0] Renaming arch reg 0 (invalid) to physical reg 4294967295 (4294967295).
  66000: system.cpu.rename: [tid:0] [sn:30] Adding instruction to history buffer (size=72).
  66000: system.cpu.rename: [tid:0] Renaming arch reg 0 (invalid) to physical reg 4294967295 (4294967295).
  66000: system.cpu.rename: [tid:0] [sn:30] Adding instruction to history buffer (size=73).
  66500: system.cpu.rename: Processing [tid:0]
  66500: system.cpu.rename: [tid:0] Free IQ: 559, Free ROB: 898, Free LQ: 132, Free SQ: 72, FreeRM 127(857 870 917 1834 127 8 4565)
  66500: system.cpu.rename: [tid:0] 30 instructions not yet in ROB
  66500: system.cpu.rename: calcFreeLQEntries: free lqEntries: 132, loadsInProgress: 8, loads dispatchedToLQ: 0
  66500: system.cpu.rename: [tid:0] Not blocked, so attempting to run stage.
  66500: system.cpu.rename: [tid:0] 10 available instructions to send iew.
  66500: system.cpu.rename: [tid:0] 30 insts pipelining from Rename | 10 insts dispatched to IQ last cycle.
  66500: system.cpu.rename: [tid:0] Sending instructions to IEW.
  66500: system.cpu.rename: calcFreeSQEntries: free sqEntries: 72, storesInProgress: 7, stores dispatchedToSQ: 1
  66500: system.cpu.rename: [tid:0] Processing instruction [sn:31] with PC (0x40102a=>0x40102c).(2=>3).
  66500: system.cpu.rename: [tid:0] Looking up invalid arch reg 0, got phys reg 4294967295 (invalid)
  66500: system.cpu.rename: [tid:0] Register 4294967295 (flat: 4294967295) (invalid) is ready.
  66500: system.cpu.rename: [tid:0] Looking up integer arch reg 0, got phys reg 43 (integer)
  66500: system.cpu.rename: [tid:0] Register 43 (flat: 43) (integer) is not ready.
  66500: system.cpu.rename: [tid:0] Looking up integer arch reg 17, got phys reg 60 (integer)
  66500: system.cpu.rename: [tid:0] Register 60 (flat: 60) (integer) is not ready.
  66500: system.cpu.rename: [tid:0] Looking up miscellaneous arch reg 155, got phys reg 155 (miscellaneous)
  66500: system.cpu.rename: [tid:0] Register 155 (flat: 0) (miscellaneous) is ready.
  66500: system.cpu.rename: [tid:0] Sending instructions to IEW.
  66500: system.cpu.rename: calcFreeLQEntries: free lqEntries: 132, loadsInProgress: 8, loads dispatchedToLQ: 0
  66500: system.cpu.rename: [tid:0] Processing instruction [sn:32] with PC (0x40102c=>0x40102e).(0=>1).
  66500: system.cpu.rename: [tid:0] Looking up invalid arch reg 0, got phys reg 4294967295 (invalid)
  66500: system.cpu.rename: [tid:0] Register 4294967295 (flat: 4294967295) (invalid) is ready.
  66500: system.cpu.rename: [tid:0] Looking up integer arch reg 0, got phys reg 43 (integer)
  66500: system.cpu.rename: [tid:0] Register 43 (flat: 43) (integer) is not ready.
  66500: system.cpu.rename: [tid:0] Looking up integer arch reg 17, got phys reg 60 (integer)
  66500: system.cpu.rename: [tid:0] Register 60 (flat: 60) (integer) is not ready.
  66500: system.cpu.rename: [tid:0] Looking up miscellaneous arch reg 155, got phys reg 155 (miscellaneous)
  66500: system.cpu.rename: [tid:0] Register 155 (flat: 0) (miscellaneous) is ready.
  66500: global: Renamed reg t1 to physical reg 61 (61) old mapping was 60 (60)
  66500: system.cpu.rename: [tid:0] Renaming arch reg 17 (integer) to physical reg 61 (61).
  66500: system.cpu.rename: [tid:0] [sn:32] Adding instruction to history buffer (size=74).
  66500: system.cpu.rename: [tid:0] Sending instructions to IEW.
  66500: system.cpu.rename: [tid:0] Processing instruction [sn:33] with PC (0x40102c=>0x40102e).(1=>2).
  66500: system.cpu.rename: [tid:0] Looking up integer arch reg 17, got phys reg 61 (integer)
  66500: system.cpu.rename: [tid:0] Register 61 (flat: 61) (integer) is not ready.
  66500: system.cpu.rename: [tid:0] Looking up integer arch reg 0, got phys reg 43 (integer)
  66500: system.cpu.rename: [tid:0] Register 43 (flat: 43) (integer) is not ready.
  66500: system.cpu.rename: [tid:0] Looking up integer arch reg 17, got phys reg 61 (integer)
  66500: system.cpu.rename: [tid:0] Register 61 (flat: 61) (integer) is not ready.
  66500: system.cpu.rename: [tid:0] Looking up invalid arch reg 0, got phys reg 4294967295 (invalid)
  66500: system.cpu.rename: [tid:0] Register 4294967295 (flat: 4294967295) (invalid) is ready.
  66500: system.cpu.rename: [tid:0] Looking up invalid arch reg 0, got phys reg 4294967295 (invalid)
  66500: system.cpu.rename: [tid:0] Register 4294967295 (flat: 4294967295) (invalid) is ready.
  66500: system.cpu.rename: [tid:0] Looking up invalid arch reg 0, got phys reg 4294967295 (invalid)
  66500: system.cpu.rename: [tid:0] Register 4294967295 (flat: 4294967295) (invalid) is ready.
  66500: system.cpu.rename: [tid:0] Looking up invalid arch reg 0, got phys reg 4294967295 (invalid)
  66500: system.cpu.rename: [tid:0] Register 4294967295 (flat: 4294967295) (invalid) is ready.
  66500: system.cpu.rename: [tid:0] Looking up invalid arch reg 0, got phys reg 4294967295 (invalid)
  66500: system.cpu.rename: [tid:0] Register 4294967295 (flat: 4294967295) (invalid) is ready.
  66500: global: Renamed reg t1 to physical reg 62 (62) old mapping was 61 (61)
  66500: system.cpu.rename: [tid:0] Renaming arch reg 17 (integer) to physical reg 62 (62).
  66500: system.cpu.rename: [tid:0] [sn:33] Adding instruction to history buffer (size=75).
  66500: global: Renamed reg condition_code[0] to physical reg 4751 (4751) old mapping was 4749 (4749)
  66500: system.cpu.rename: [tid:0] Renaming arch reg 0 (condition_code) to physical reg 25 (4751).
  66500: system.cpu.rename: [tid:0] [sn:33] Adding instruction to history buffer (size=76).
  66500: global: Renamed reg condition_code[1] to physical reg 4752 (4752) old mapping was 4750 (4750)
  66500: system.cpu.rename: [tid:0] Renaming arch reg 1 (condition_code) to physical reg 26 (4752).
  66500: system.cpu.rename: [tid:0] [sn:33] Adding instruction to history buffer (size=77).
  66500: system.cpu.rename: [tid:0] Renaming arch reg 0 (invalid) to physical reg 4294967295 (4294967295).
  66500: system.cpu.rename: [tid:0] [sn:33] Adding instruction to history buffer (size=78).
  66500: system.cpu.rename: [tid:0] Renaming arch reg 0 (invalid) to physical reg 4294967295 (4294967295).
  66500: system.cpu.rename: [tid:0] [sn:33] Adding instruction to history buffer (size=79).
  66500: system.cpu.rename: [tid:0] Renaming arch reg 0 (invalid) to physical reg 4294967295 (4294967295).
  66500: system.cpu.rename: [tid:0] [sn:33] Adding instruction to history buffer (size=80).
  66500: system.cpu.rename: [tid:0] Sending instructions to IEW.
  66500: system.cpu.rename: calcFreeSQEntries: free sqEntries: 72, storesInProgress: 8, stores dispatchedToSQ: 1
  66500: system.cpu.rename: [tid:0] Processing instruction [sn:34] with PC (0x40102c=>0x40102e).(2=>3).
  66500: system.cpu.rename: [tid:0] Looking up invalid arch reg 0, got phys reg 4294967295 (invalid)
  66500: system.cpu.rename: [tid:0] Register 4294967295 (flat: 4294967295) (invalid) is ready.
  66500: system.cpu.rename: [tid:0] Looking up integer arch reg 0, got phys reg 43 (integer)
  66500: system.cpu.rename: [tid:0] Register 43 (flat: 43) (integer) is not ready.
  66500: system.cpu.rename: [tid:0] Looking up integer arch reg 17, got phys reg 62 (integer)
  66500: system.cpu.rename: [tid:0] Register 62 (flat: 62) (integer) is not ready.
  66500: system.cpu.rename: [tid:0] Looking up miscellaneous arch reg 155, got phys reg 155 (miscellaneous)
  66500: system.cpu.rename: [tid:0] Register 155 (flat: 0) (miscellaneous) is ready.
  66500: system.cpu.rename: [tid:0] Sending instructions to IEW.
  66500: system.cpu.rename: calcFreeLQEntries: free lqEntries: 132, loadsInProgress: 9, loads dispatchedToLQ: 0
  66500: system.cpu.rename: [tid:0] Processing instruction [sn:35] with PC (0x40102e=>0x401030).(0=>1).
  66500: system.cpu.rename: [tid:0] Looking up invalid arch reg 0, got phys reg 4294967295 (invalid)
  66500: system.cpu.rename: [tid:0] Register 4294967295 (flat: 4294967295) (invalid) is ready.
  66500: system.cpu.rename: [tid:0] Looking up integer arch reg 0, got phys reg 43 (integer)
  66500: system.cpu.rename: [tid:0] Register 43 (flat: 43) (integer) is not ready.
  66500: system.cpu.rename: [tid:0] Looking up integer arch reg 17, got phys reg 62 (integer)
  66500: system.cpu.rename: [tid:0] Register 62 (flat: 62) (integer) is not ready.
  66500: system.cpu.rename: [tid:0] Looking up miscellaneous arch reg 155, got phys reg 155 (miscellaneous)
  66500: system.cpu.rename: [tid:0] Register 155 (flat: 0) (miscellaneous) is ready.
  66500: global: Renamed reg t1 to physical reg 63 (63) old mapping was 62 (62)
  66500: system.cpu.rename: [tid:0] Renaming arch reg 17 (integer) to physical reg 63 (63).
  66500: system.cpu.rename: [tid:0] [sn:35] Adding instruction to history buffer (size=81).
  66500: system.cpu.rename: [tid:0] Sending instructions to IEW.
  66500: system.cpu.rename: [tid:0] Processing instruction [sn:36] with PC (0x40102e=>0x401030).(1=>2).
  66500: system.cpu.rename: [tid:0] Looking up integer arch reg 17, got phys reg 63 (integer)
  66500: system.cpu.rename: [tid:0] Register 63 (flat: 63) (integer) is not ready.
  66500: system.cpu.rename: [tid:0] Looking up integer arch reg 0, got phys reg 43 (integer)
  66500: system.cpu.rename: [tid:0] Register 43 (flat: 43) (integer) is not ready.
  66500: system.cpu.rename: [tid:0] Looking up integer arch reg 17, got phys reg 63 (integer)
  66500: system.cpu.rename: [tid:0] Register 63 (flat: 63) (integer) is not ready.
  66500: system.cpu.rename: [tid:0] Looking up invalid arch reg 0, got phys reg 4294967295 (invalid)
  66500: system.cpu.rename: [tid:0] Register 4294967295 (flat: 4294967295) (invalid) is ready.
  66500: system.cpu.rename: [tid:0] Looking up invalid arch reg 0, got phys reg 4294967295 (invalid)
  66500: system.cpu.rename: [tid:0] Register 4294967295 (flat: 4294967295) (invalid) is ready.
  66500: system.cpu.rename: [tid:0] Looking up invalid arch reg 0, got phys reg 4294967295 (invalid)
  66500: system.cpu.rename: [tid:0] Register 4294967295 (flat: 4294967295) (invalid) is ready.
  66500: system.cpu.rename: [tid:0] Looking up invalid arch reg 0, got phys reg 4294967295 (invalid)
  66500: system.cpu.rename: [tid:0] Register 4294967295 (flat: 4294967295) (invalid) is ready.
  66500: system.cpu.rename: [tid:0] Looking up invalid arch reg 0, got phys reg 4294967295 (invalid)
  66500: system.cpu.rename: [tid:0] Register 4294967295 (flat: 4294967295) (invalid) is ready.
  66500: global: Renamed reg t1 to physical reg 64 (64) old mapping was 63 (63)
  66500: system.cpu.rename: [tid:0] Renaming arch reg 17 (integer) to physical reg 64 (64).
  66500: system.cpu.rename: [tid:0] [sn:36] Adding instruction to history buffer (size=82).
  66500: global: Renamed reg condition_code[0] to physical reg 4753 (4753) old mapping was 4751 (4751)
  66500: system.cpu.rename: [tid:0] Renaming arch reg 0 (condition_code) to physical reg 27 (4753).
  66500: system.cpu.rename: [tid:0] [sn:36] Adding instruction to history buffer (size=83).
  66500: global: Renamed reg condition_code[1] to physical reg 4754 (4754) old mapping was 4752 (4752)
  66500: system.cpu.rename: [tid:0] Renaming arch reg 1 (condition_code) to physical reg 28 (4754).
  66500: system.cpu.rename: [tid:0] [sn:36] Adding instruction to history buffer (size=84).
  66500: system.cpu.rename: [tid:0] Renaming arch reg 0 (invalid) to physical reg 4294967295 (4294967295).
  66500: system.cpu.rename: [tid:0] [sn:36] Adding instruction to history buffer (size=85).
  66500: system.cpu.rename: [tid:0] Renaming arch reg 0 (invalid) to physical reg 4294967295 (4294967295).
  66500: system.cpu.rename: [tid:0] [sn:36] Adding instruction to history buffer (size=86).
  66500: system.cpu.rename: [tid:0] Renaming arch reg 0 (invalid) to physical reg 4294967295 (4294967295).
  66500: system.cpu.rename: [tid:0] [sn:36] Adding instruction to history buffer (size=87).
  66500: system.cpu.rename: [tid:0] Sending instructions to IEW.
  66500: system.cpu.rename: calcFreeSQEntries: free sqEntries: 72, storesInProgress: 9, stores dispatchedToSQ: 1
  66500: system.cpu.rename: [tid:0] Processing instruction [sn:37] with PC (0x40102e=>0x401030).(2=>3).
  66500: system.cpu.rename: [tid:0] Looking up invalid arch reg 0, got phys reg 4294967295 (invalid)
  66500: system.cpu.rename: [tid:0] Register 4294967295 (flat: 4294967295) (invalid) is ready.
  66500: system.cpu.rename: [tid:0] Looking up integer arch reg 0, got phys reg 43 (integer)
  66500: system.cpu.rename: [tid:0] Register 43 (flat: 43) (integer) is not ready.
  66500: system.cpu.rename: [tid:0] Looking up integer arch reg 17, got phys reg 64 (integer)
  66500: system.cpu.rename: [tid:0] Register 64 (flat: 64) (integer) is not ready.
  66500: system.cpu.rename: [tid:0] Looking up miscellaneous arch reg 155, got phys reg 155 (miscellaneous)
  66500: system.cpu.rename: [tid:0] Register 155 (flat: 0) (miscellaneous) is ready.
  66500: system.cpu.rename: [tid:0] Sending instructions to IEW.
  66500: system.cpu.rename: calcFreeLQEntries: free lqEntries: 132, loadsInProgress: 10, loads dispatchedToLQ: 0
  66500: system.cpu.rename: [tid:0] Processing instruction [sn:38] with PC (0x401030=>0x401032).(0=>1).
  66500: system.cpu.rename: [tid:0] Looking up invalid arch reg 0, got phys reg 4294967295 (invalid)
  66500: system.cpu.rename: [tid:0] Register 4294967295 (flat: 4294967295) (invalid) is ready.
  66500: system.cpu.rename: [tid:0] Looking up integer arch reg 0, got phys reg 43 (integer)
  66500: system.cpu.rename: [tid:0] Register 43 (flat: 43) (integer) is not ready.
  66500: system.cpu.rename: [tid:0] Looking up integer arch reg 17, got phys reg 64 (integer)
  66500: system.cpu.rename: [tid:0] Register 64 (flat: 64) (integer) is not ready.
  66500: system.cpu.rename: [tid:0] Looking up miscellaneous arch reg 155, got phys reg 155 (miscellaneous)
  66500: system.cpu.rename: [tid:0] Register 155 (flat: 0) (miscellaneous) is ready.
  66500: global: Renamed reg t1 to physical reg 65 (65) old mapping was 64 (64)
  66500: system.cpu.rename: [tid:0] Renaming arch reg 17 (integer) to physical reg 65 (65).
  66500: system.cpu.rename: [tid:0] [sn:38] Adding instruction to history buffer (size=88).
  66500: system.cpu.rename: [tid:0] Sending instructions to IEW.
  66500: system.cpu.rename: [tid:0] Processing instruction [sn:39] with PC (0x401030=>0x401032).(1=>2).
  66500: system.cpu.rename: [tid:0] Looking up integer arch reg 17, got phys reg 65 (integer)
  66500: system.cpu.rename: [tid:0] Register 65 (flat: 65) (integer) is not ready.
  66500: system.cpu.rename: [tid:0] Looking up integer arch reg 0, got phys reg 43 (integer)
  66500: system.cpu.rename: [tid:0] Register 43 (flat: 43) (integer) is not ready.
  66500: system.cpu.rename: [tid:0] Looking up integer arch reg 17, got phys reg 65 (integer)
  66500: system.cpu.rename: [tid:0] Register 65 (flat: 65) (integer) is not ready.
  66500: system.cpu.rename: [tid:0] Looking up invalid arch reg 0, got phys reg 4294967295 (invalid)
  66500: system.cpu.rename: [tid:0] Register 4294967295 (flat: 4294967295) (invalid) is ready.
  66500: system.cpu.rename: [tid:0] Looking up invalid arch reg 0, got phys reg 4294967295 (invalid)
  66500: system.cpu.rename: [tid:0] Register 4294967295 (flat: 4294967295) (invalid) is ready.
  66500: system.cpu.rename: [tid:0] Looking up invalid arch reg 0, got phys reg 4294967295 (invalid)
  66500: system.cpu.rename: [tid:0] Register 4294967295 (flat: 4294967295) (invalid) is ready.
  66500: system.cpu.rename: [tid:0] Looking up invalid arch reg 0, got phys reg 4294967295 (invalid)
  66500: system.cpu.rename: [tid:0] Register 4294967295 (flat: 4294967295) (invalid) is ready.
  66500: system.cpu.rename: [tid:0] Looking up invalid arch reg 0, got phys reg 4294967295 (invalid)
  66500: system.cpu.rename: [tid:0] Register 4294967295 (flat: 4294967295) (invalid) is ready.
  66500: global: Renamed reg t1 to physical reg 66 (66) old mapping was 65 (65)
  66500: system.cpu.rename: [tid:0] Renaming arch reg 17 (integer) to physical reg 66 (66).
  66500: system.cpu.rename: [tid:0] [sn:39] Adding instruction to history buffer (size=89).
  66500: global: Renamed reg condition_code[0] to physical reg 4755 (4755) old mapping was 4753 (4753)
  66500: system.cpu.rename: [tid:0] Renaming arch reg 0 (condition_code) to physical reg 29 (4755).
  66500: system.cpu.rename: [tid:0] [sn:39] Adding instruction to history buffer (size=90).
  66500: global: Renamed reg condition_code[1] to physical reg 4756 (4756) old mapping was 4754 (4754)
  66500: system.cpu.rename: [tid:0] Renaming arch reg 1 (condition_code) to physical reg 30 (4756).
  66500: system.cpu.rename: [tid:0] [sn:39] Adding instruction to history buffer (size=91).
  66500: system.cpu.rename: [tid:0] Renaming arch reg 0 (invalid) to physical reg 4294967295 (4294967295).
  66500: system.cpu.rename: [tid:0] [sn:39] Adding instruction to history buffer (size=92).
  66500: system.cpu.rename: [tid:0] Renaming arch reg 0 (invalid) to physical reg 4294967295 (4294967295).
  66500: system.cpu.rename: [tid:0] [sn:39] Adding instruction to history buffer (size=93).
  66500: system.cpu.rename: [tid:0] Renaming arch reg 0 (invalid) to physical reg 4294967295 (4294967295).
  66500: system.cpu.rename: [tid:0] [sn:39] Adding instruction to history buffer (size=94).
  66500: system.cpu.rename: [tid:0] Sending instructions to IEW.
  66500: system.cpu.rename: calcFreeSQEntries: free sqEntries: 72, storesInProgress: 10, stores dispatchedToSQ: 1
  66500: system.cpu.rename: [tid:0] Processing instruction [sn:40] with PC (0x401030=>0x401032).(2=>3).
  66500: system.cpu.rename: [tid:0] Looking up invalid arch reg 0, got phys reg 4294967295 (invalid)
  66500: system.cpu.rename: [tid:0] Register 4294967295 (flat: 4294967295) (invalid) is ready.
  66500: system.cpu.rename: [tid:0] Looking up integer arch reg 0, got phys reg 43 (integer)
  66500: system.cpu.rename: [tid:0] Register 43 (flat: 43) (integer) is not ready.
  66500: system.cpu.rename: [tid:0] Looking up integer arch reg 17, got phys reg 66 (integer)
  66500: system.cpu.rename: [tid:0] Register 66 (flat: 66) (integer) is not ready.
  66500: system.cpu.rename: [tid:0] Looking up miscellaneous arch reg 155, got phys reg 155 (miscellaneous)
  66500: system.cpu.rename: [tid:0] Register 155 (flat: 0) (miscellaneous) is ready.
  67000: system.cpu.rename: Processing [tid:0]
  67000: system.cpu.rename: [tid:0] Free IQ: 546, Free ROB: 888, Free LQ: 128, Free SQ: 68, FreeRM 127(851 870 917 1834 127 8 4559)
  67000: system.cpu.rename: [tid:0] 30 instructions not yet in ROB
  67000: system.cpu.rename: calcFreeLQEntries: free lqEntries: 128, loadsInProgress: 11, loads dispatchedToLQ: 4
  67000: system.cpu.rename: [tid:0] Not blocked, so attempting to run stage.
  67000: system.cpu.rename: [tid:0] 10 available instructions to send iew.
  67000: system.cpu.rename: [tid:0] 30 insts pipelining from Rename | 10 insts dispatched to IQ last cycle.
  67000: system.cpu.rename: [tid:0] Sending instructions to IEW.
  67000: system.cpu.rename: calcFreeLQEntries: free lqEntries: 128, loadsInProgress: 11, loads dispatchedToLQ: 4
  67000: system.cpu.rename: [tid:0] Processing instruction [sn:41] with PC (0x401032=>0x401034).(0=>1).
  67000: system.cpu.rename: [tid:0] Looking up invalid arch reg 0, got phys reg 4294967295 (invalid)
  67000: system.cpu.rename: [tid:0] Register 4294967295 (flat: 4294967295) (invalid) is ready.
  67000: system.cpu.rename: [tid:0] Looking up integer arch reg 0, got phys reg 43 (integer)
  67000: system.cpu.rename: [tid:0] Register 43 (flat: 43) (integer) is ready.
  67000: system.cpu.rename: [tid:0] Looking up integer arch reg 17, got phys reg 66 (integer)
  67000: system.cpu.rename: [tid:0] Register 66 (flat: 66) (integer) is not ready.
  67000: system.cpu.rename: [tid:0] Looking up miscellaneous arch reg 155, got phys reg 155 (miscellaneous)
  67000: system.cpu.rename: [tid:0] Register 155 (flat: 0) (miscellaneous) is ready.
  67000: global: Renamed reg t1 to physical reg 67 (67) old mapping was 66 (66)
  67000: system.cpu.rename: [tid:0] Renaming arch reg 17 (integer) to physical reg 67 (67).
  67000: system.cpu.rename: [tid:0] [sn:41] Adding instruction to history buffer (size=95).
  67000: system.cpu.rename: [tid:0] Sending instructions to IEW.
[...]
  67500: system.cpu.rename: [tid:0] [sn:51] Adding instruction to history buffer (size=121).
  67500: system.cpu.rename: [tid:0] Renaming arch reg 0 (invalid) to physical reg 4294967295 (4294967295).
  67500: system.cpu.rename: [tid:0] [sn:51] Adding instruction to history buffer (size=122).
  67500: system.cpu.rename: [tid:0] Sending instructions to IEW.
  67500: system.cpu.rename: calcFreeSQEntries: free sqEntries: 65, storesInProgress: 10, stores dispatchedToSQ: 3
  67500: system.cpu.rename: [tid:0] Processing instruction [sn:52] with PC (0x401038=>0x40103a).(2=>3).
  67500: system.cpu.rename: [tid:0] Looking up invalid arch reg 0, got phys reg 4294967295 (invalid)
  67500: system.cpu.rename: [tid:0] Register 4294967295 (flat: 4294967295) (invalid) is ready.
  67500: system.cpu.rename: [tid:0] Looking up integer arch reg 0, got phys reg 43 (integer)
  67500: system.cpu.rename: [tid:0] Register 43 (flat: 43) (integer) is ready.
  67500: system.cpu.rename: [tid:0] Looking up integer arch reg 17, got phys reg 74 (integer)
  67500: system.cpu.rename: [tid:0] Register 74 (flat: 74) (integer) is not ready.
  67500: system.cpu.rename: [tid:0] Looking up miscellaneous arch reg 155, got phys reg 155 (miscellaneous)
  67500: system.cpu.rename: [tid:0] Register 155 (flat: 0) (miscellaneous) is ready.
  67500: system.cpu.rename: [tid:0] Sending instructions to IEW.
  67500: system.cpu.rename: calcFreeLQEntries: free lqEntries: 125, loadsInProgress: 11, loads dispatchedToLQ: 3
  67500: system.cpu.rename: [tid:0] Processing instruction [sn:53] with PC (0x40103a=>0x40103c).(0=>1).
  67500: system.cpu.rename: [tid:0] Looking up invalid arch reg 0, got phys reg 4294967295 (invalid)
  67500: system.cpu.rename: [tid:0] Register 4294967295 (flat: 4294967295) (invalid) is ready.
  67500: system.cpu.rename: [tid:0] Looking up integer arch reg 0, got phys reg 43 (integer)
  67500: system.cpu.rename: [tid:0] Register 43 (flat: 43) (integer) is ready.
  67500: system.cpu.rename: [tid:0] Looking up integer arch reg 17, got phys reg 74 (integer)
  67500: system.cpu.rename: [tid:0] Register 74 (flat: 74) (integer) is not ready.
  67500: system.cpu.rename: [tid:0] Looking up miscellaneous arch reg 155, got phys reg 155 (miscellaneous)
  67500: system.cpu.rename: [tid:0] Register 155 (flat: 0) (miscellaneous) is ready.
  67500: global: Renamed reg t1 to physical reg 75 (75) old mapping was 74 (74)
  67500: system.cpu.rename: [tid:0] Renaming arch reg 17 (integer) to physical reg 75 (75).
  67500: system.cpu.rename: [tid:0] [sn:53] Adding instruction to history buffer (size=123).
  67500: system.cpu.rename: [tid:0] Sending instructions to IEW.
  67500: system.cpu.rename: [tid:0] Processing instruction [sn:54] with PC (0x40103a=>0x40103c).(1=>2).
  67500: system.cpu.rename: [tid:0] Looking up integer arch reg 17, got phys reg 75 (integer)
  67500: system.cpu.rename: [tid:0] Register 75 (flat: 75) (integer) is not ready.
  67500: system.cpu.rename: [tid:0] Looking up integer arch reg 0, got phys reg 43 (integer)
  67500: system.cpu.rename: [tid:0] Register 43 (flat: 43) (integer) is ready.
  67500: system.cpu.rename: [tid:0] Looking up integer arch reg 17, got phys reg 75 (integer)
  67500: system.cpu.rename: [tid:0] Register 75 (flat: 75) (integer) is not ready.
  67500: system.cpu.rename: [tid:0] Looking up invalid arch reg 0, got phys reg 4294967295 (invalid)
  67500: system.cpu.rename: [tid:0] Register 4294967295 (flat: 4294967295) (invalid) is ready.
  67500: system.cpu.rename: [tid:0] Looking up invalid arch reg 0, got phys reg 4294967295 (invalid)
  67500: system.cpu.rename: [tid:0] Register 4294967295 (flat: 4294967295) (invalid) is ready.
  67500: system.cpu.rename: [tid:0] Looking up invalid arch reg 0, got phys reg 4294967295 (invalid)
  67500: system.cpu.rename: [tid:0] Register 4294967295 (flat: 4294967295) (invalid) is ready.
  67500: system.cpu.rename: [tid:0] Looking up invalid arch reg 0, got phys reg 4294967295 (invalid)
  67500: system.cpu.rename: [tid:0] Register 4294967295 (flat: 4294967295) (invalid) is ready.
  67500: system.cpu.rename: [tid:0] Looking up invalid arch reg 0, got phys reg 4294967295 (invalid)
  67500: system.cpu.rename: [tid:0] Register 4294967295 (flat: 4294967295) (invalid) is ready.
  67500: global: Renamed reg t1 to physical reg 76 (76) old mapping was 75 (75)
  67500: system.cpu.rename: [tid:0] Renaming arch reg 17 (integer) to physical reg 76 (76).
  67500: system.cpu.rename: [tid:0] [sn:54] Adding instruction to history buffer (size=124).
  67500: global: Renamed reg condition_code[0] to physical reg 4765 (4765) old mapping was 4763 (4763)
  67500: system.cpu.rename: [tid:0] Renaming arch reg 0 (condition_code) to physical reg 39 (4765).
  67500: system.cpu.rename: [tid:0] [sn:54] Adding instruction to history buffer (size=125).
  67500: global: Renamed reg condition_code[1] to physical reg 4766 (4766) old mapping was 4764 (4764)
  67500: system.cpu.rename: [tid:0] Renaming arch reg 1 (condition_code) to physical reg 40 (4766).
  67500: system.cpu.rename: [tid:0] [sn:54] Adding instruction to history buffer (size=126).
  67500: system.cpu.rename: [tid:0] Renaming arch reg 0 (invalid) to physical reg 4294967295 (4294967295).
  67500: system.cpu.rename: [tid:0] [sn:54] Adding instruction to history buffer (size=127).
  67500: system.cpu.rename: [tid:0] Renaming arch reg 0 (invalid) to physical reg 4294967295 (4294967295).
  67500: system.cpu.rename: [tid:0] [sn:54] Adding instruction to history buffer (size=128).
  67500: system.cpu.rename: [tid:0] Renaming arch reg 0 (invalid) to physical reg 4294967295 (4294967295).
  67500: system.cpu.rename: [tid:0] [sn:54] Adding instruction to history buffer (size=129).
  67500: system.cpu.rename: [tid:0] Sending instructions to IEW.
  67500: system.cpu.rename: calcFreeSQEntries: free sqEntries: 65, storesInProgress: 11, stores dispatchedToSQ: 3
  67500: system.cpu.rename: [tid:0] Processing instruction [sn:55] with PC (0x40103a=>0x40103c).(2=>3).
  67500: system.cpu.rename: [tid:0] Looking up invalid arch reg 0, got phys reg 4294967295 (invalid)
  67500: system.cpu.rename: [tid:0] Register 4294967295 (flat: 4294967295) (invalid) is ready.
  67500: system.cpu.rename: [tid:0] Looking up integer arch reg 0, got phys reg 43 (integer)
  67500: system.cpu.rename: [tid:0] Register 43 (flat: 43) (integer) is ready.
  67500: system.cpu.rename: [tid:0] Looking up integer arch reg 17, got phys reg 76 (integer)
  67500: system.cpu.rename: [tid:0] Register 76 (flat: 76) (integer) is not ready.
  67500: system.cpu.rename: [tid:0] Looking up miscellaneous arch reg 155, got phys reg 155 (miscellaneous)
  67500: system.cpu.rename: [tid:0] Register 155 (flat: 0) (miscellaneous) is ready.
  67500: system.cpu.rename: [tid:0] Sending instructions to IEW.
  67500: system.cpu.rename: calcFreeLQEntries: free lqEntries: 125, loadsInProgress: 12, loads dispatchedToLQ: 3
  67500: system.cpu.rename: [tid:0] Processing instruction [sn:56] with PC (0x40103c=>0x40103e).(0=>1).
  67500: system.cpu.rename: [tid:0] Looking up invalid arch reg 0, got phys reg 4294967295 (invalid)
  67500: system.cpu.rename: [tid:0] Register 4294967295 (flat: 4294967295) (invalid) is ready.
  67500: system.cpu.rename: [tid:0] Looking up integer arch reg 0, got phys reg 43 (integer)
  67500: system.cpu.rename: [tid:0] Register 43 (flat: 43) (integer) is ready.
  67500: system.cpu.rename: [tid:0] Looking up integer arch reg 17, got phys reg 76 (integer)
  67500: system.cpu.rename: [tid:0] Register 76 (flat: 76) (integer) is not ready.
  67500: system.cpu.rename: [tid:0] Looking up miscellaneous arch reg 155, got phys reg 155 (miscellaneous)
  67500: system.cpu.rename: [tid:0] Register 155 (flat: 0) (miscellaneous) is ready.
  67500: global: Renamed reg t1 to physical reg 77 (77) old mapping was 76 (76)
  67500: system.cpu.rename: [tid:0] Renaming arch reg 17 (integer) to physical reg 77 (77).
  67500: system.cpu.rename: [tid:0] [sn:56] Adding instruction to history buffer (size=130).
  67500: system.cpu.rename: [tid:0] Sending instructions to IEW.
  67500: system.cpu.rename: [tid:0] Processing instruction [sn:57] with PC (0x40103c=>0x40103e).(1=>2).
  67500: system.cpu.rename: [tid:0] Looking up integer arch reg 17, got phys reg 77 (integer)
  67500: system.cpu.rename: [tid:0] Register 77 (flat: 77) (integer) is not ready.
  67500: system.cpu.rename: [tid:0] Looking up integer arch reg 0, got phys reg 43 (integer)
  67500: system.cpu.rename: [tid:0] Register 43 (flat: 43) (integer) is ready.
  67500: system.cpu.rename: [tid:0] Looking up integer arch reg 17, got phys reg 77 (integer)
  67500: system.cpu.rename: [tid:0] Register 77 (flat: 77) (integer) is not ready.
  67500: system.cpu.rename: [tid:0] Looking up invalid arch reg 0, got phys reg 4294967295 (invalid)
  67500: system.cpu.rename: [tid:0] Register 4294967295 (flat: 4294967295) (invalid) is ready.
  67500: system.cpu.rename: [tid:0] Looking up invalid arch reg 0, got phys reg 4294967295 (invalid)
  67500: system.cpu.rename: [tid:0] Register 4294967295 (flat: 4294967295) (invalid) is ready.
  67500: system.cpu.rename: [tid:0] Looking up invalid arch reg 0, got phys reg 4294967295 (invalid)
  67500: system.cpu.rename: [tid:0] Register 4294967295 (flat: 4294967295) (invalid) is ready.
  67500: system.cpu.rename: [tid:0] Looking up invalid arch reg 0, got phys reg 4294967295 (invalid)
  67500: system.cpu.rename: [tid:0] Register 4294967295 (flat: 4294967295) (invalid) is ready.
  67500: system.cpu.rename: [tid:0] Looking up invalid arch reg 0, got phys reg 4294967295 (invalid)
  67500: system.cpu.rename: [tid:0] Register 4294967295 (flat: 4294967295) (invalid) is ready.
  67500: global: Renamed reg t1 to physical reg 78 (78) old mapping was 77 (77)
  67500: system.cpu.rename: [tid:0] Renaming arch reg 17 (integer) to physical reg 78 (78).
  67500: system.cpu.rename: [tid:0] [sn:57] Adding instruction to history buffer (size=131).
  67500: global: Renamed reg condition_code[0] to physical reg 4767 (4767) old mapping was 4765 (4765)
  67500: system.cpu.rename: [tid:0] Renaming arch reg 0 (condition_code) to physical reg 41 (4767).
  67500: system.cpu.rename: [tid:0] [sn:57] Adding instruction to history buffer (size=132).
  67500: global: Renamed reg condition_code[1] to physical reg 4768 (4768) old mapping was 4766 (4766)
  67500: system.cpu.rename: [tid:0] Renaming arch reg 1 (condition_code) to physical reg 42 (4768).
  67500: system.cpu.rename: [tid:0] [sn:57] Adding instruction to history buffer (size=133).
  67500: system.cpu.rename: [tid:0] Renaming arch reg 0 (invalid) to physical reg 4294967295 (4294967295).
  67500: system.cpu.rename: [tid:0] [sn:57] Adding instruction to history buffer (size=134).
  67500: system.cpu.rename: [tid:0] Renaming arch reg 0 (invalid) to physical reg 4294967295 (4294967295).
  67500: system.cpu.rename: [tid:0] [sn:57] Adding instruction to history buffer (size=135).
  67500: system.cpu.rename: [tid:0] Renaming arch reg 0 (invalid) to physical reg 4294967295 (4294967295).
  67500: system.cpu.rename: [tid:0] [sn:57] Adding instruction to history buffer (size=136).
  67500: system.cpu.rename: [tid:0] Sending instructions to IEW.
  67500: system.cpu.rename: calcFreeSQEntries: free sqEntries: 65, storesInProgress: 12, stores dispatchedToSQ: 3
  67500: system.cpu.rename: [tid:0] Processing instruction [sn:58] with PC (0x40103c=>0x40103e).(2=>3).
  67500: system.cpu.rename: [tid:0] Looking up invalid arch reg 0, got phys reg 4294967295 (invalid)
  67500: system.cpu.rename: [tid:0] Register 4294967295 (flat: 4294967295) (invalid) is ready.
  67500: system.cpu.rename: [tid:0] Looking up integer arch reg 0, got phys reg 43 (integer)
  67500: system.cpu.rename: [tid:0] Register 43 (flat: 43) (integer) is ready.
  67500: system.cpu.rename: [tid:0] Looking up integer arch reg 17, got phys reg 78 (integer)
  67500: system.cpu.rename: [tid:0] Register 78 (flat: 78) (integer) is not ready.
  67500: system.cpu.rename: [tid:0] Looking up miscellaneous arch reg 155, got phys reg 155 (miscellaneous)
  67500: system.cpu.rename: [tid:0] Register 155 (flat: 0) (miscellaneous) is ready.
  67500: system.cpu.rename: [tid:0] Sending instructions to IEW.
  67500: system.cpu.rename: calcFreeLQEntries: free lqEntries: 125, loadsInProgress: 13, loads dispatchedToLQ: 3
  67500: system.cpu.rename: [tid:0] Processing instruction [sn:59] with PC (0x40103e=>0x401040).(0=>1).
  67500: system.cpu.rename: [tid:0] Looking up invalid arch reg 0, got phys reg 4294967295 (invalid)
  67500: system.cpu.rename: [tid:0] Register 4294967295 (flat: 4294967295) (invalid) is ready.
  67500: system.cpu.rename: [tid:0] Looking up integer arch reg 0, got phys reg 43 (integer)
  67500: system.cpu.rename: [tid:0] Register 43 (flat: 43) (integer) is ready.
  67500: system.cpu.rename: [tid:0] Looking up integer arch reg 17, got phys reg 78 (integer)
  67500: system.cpu.rename: [tid:0] Register 78 (flat: 78) (integer) is not ready.
  67500: system.cpu.rename: [tid:0] Looking up miscellaneous arch reg 155, got phys reg 155 (miscellaneous)
  67500: system.cpu.rename: [tid:0] Register 155 (flat: 0) (miscellaneous) is ready.
  67500: global: Renamed reg t1 to physical reg 79 (79) old mapping was 78 (78)
  67500: system.cpu.rename: [tid:0] Renaming arch reg 17 (integer) to physical reg 79 (79).
  67500: system.cpu.rename: [tid:0] [sn:59] Adding instruction to history buffer (size=137).
  67500: system.cpu.rename: [tid:0] Sending instructions to IEW.
  67500: system.cpu.rename: [tid:0] Processing instruction [sn:60] with PC (0x40103e=>0x401040).(1=>2).
  67500: system.cpu.rename: [tid:0] Looking up integer arch reg 17, got phys reg 79 (integer)
  67500: system.cpu.rename: [tid:0] Register 79 (flat: 79) (integer) is not ready.
  67500: system.cpu.rename: [tid:0] Looking up integer arch reg 0, got phys reg 43 (integer)
  67500: system.cpu.rename: [tid:0] Register 43 (flat: 43) (integer) is ready.
  67500: system.cpu.rename: [tid:0] Looking up integer arch reg 17, got phys reg 79 (integer)
  67500: system.cpu.rename: [tid:0] Register 79 (flat: 79) (integer) is not ready.
  67500: system.cpu.rename: [tid:0] Looking up invalid arch reg 0, got phys reg 4294967295 (invalid)
  67500: system.cpu.rename: [tid:0] Register 4294967295 (flat: 4294967295) (invalid) is ready.
  67500: system.cpu.rename: [tid:0] Looking up invalid arch reg 0, got phys reg 4294967295 (invalid)
  67500: system.cpu.rename: [tid:0] Register 4294967295 (flat: 4294967295) (invalid) is ready.
  67500: system.cpu.rename: [tid:0] Looking up invalid arch reg 0, got phys reg 4294967295 (invalid)
  67500: system.cpu.rename: [tid:0] Register 4294967295 (flat: 4294967295) (invalid) is ready.
  67500: system.cpu.rename: [tid:0] Looking up invalid arch reg 0, got phys reg 4294967295 (invalid)
  67500: system.cpu.rename: [tid:0] Register 4294967295 (flat: 4294967295) (invalid) is ready.
  67500: system.cpu.rename: [tid:0] Looking up invalid arch reg 0, got phys reg 4294967295 (invalid)
  67500: system.cpu.rename: [tid:0] Register 4294967295 (flat: 4294967295) (invalid) is ready.
  67500: global: Renamed reg t1 to physical reg 80 (80) old mapping was 79 (79)
  67500: system.cpu.rename: [tid:0] Renaming arch reg 17 (integer) to physical reg 80 (80).
  67500: system.cpu.rename: [tid:0] [sn:60] Adding instruction to history buffer (size=138).
  67500: global: Renamed reg condition_code[0] to physical reg 4769 (4769) old mapping was 4767 (4767)
  67500: system.cpu.rename: [tid:0] Renaming arch reg 0 (condition_code) to physical reg 43 (4769).
  67500: system.cpu.rename: [tid:0] [sn:60] Adding instruction to history buffer (size=139).
  67500: global: Renamed reg condition_code[1] to physical reg 4770 (4770) old mapping was 4768 (4768)
  67500: system.cpu.rename: [tid:0] Renaming arch reg 1 (condition_code) to physical reg 44 (4770).
  67500: system.cpu.rename: [tid:0] [sn:60] Adding instruction to history buffer (size=140).
  67500: system.cpu.rename: [tid:0] Renaming arch reg 0 (invalid) to physical reg 4294967295 (4294967295).
  67500: system.cpu.rename: [tid:0] [sn:60] Adding instruction to history buffer (size=141).
  67500: system.cpu.rename: [tid:0] Renaming arch reg 0 (invalid) to physical reg 4294967295 (4294967295).
  67500: system.cpu.rename: [tid:0] [sn:60] Adding instruction to history buffer (size=142).
  67500: system.cpu.rename: [tid:0] Renaming arch reg 0 (invalid) to physical reg 4294967295 (4294967295).
  67500: system.cpu.rename: [tid:0] [sn:60] Adding instruction to history buffer (size=143).
gem5.opt: src/base/circular_queue.hh:397: std::enable_if_t<is_integral_v<Idx>, typename std::vector<_Tp>::reference> gem5::CircularQueue<T>::operator[](const Idx&) [with Idx = long int; T = gem5::o3::LSQUnit::LSQEntry; std::enable_if_t<is_integral_v<Idx>, typename std::vector<_Tp>::reference> = gem5::o3::LSQUnit::LSQEntry&; typename std::vector<_Tp>::reference = gem5::o3::LSQUnit::LSQEntry&]: Assertion `index >= 0' failed.
Program aborted at tick 67500
--- BEGIN LIBC BACKTRACE ---
./build/X86/gem5.opt(_ZN4gem515print_backtraceEv+0x30)[0x56aa695e8330]
./build/X86/gem5.opt(_ZN4gem512abortHandlerEi+0x4c)[0x56aa69611ecc]
/lib/x86_64-linux-gnu/libc.so.6(+0x45320)[0x73e564c45320]
/lib/x86_64-linux-gnu/libc.so.6(pthread_kill+0x11c)[0x73e564c9eb1c]
/lib/x86_64-linux-gnu/libc.so.6(gsignal+0x1e)[0x73e564c4526e]
/lib/x86_64-linux-gnu/libc.so.6(abort+0xdf)[0x73e564c288ff]
/lib/x86_64-linux-gnu/libc.so.6(+0x2881b)[0x73e564c2881b]
/lib/x86_64-linux-gnu/libc.so.6(+0x3b507)[0x73e564c3b507]
./build/X86/gem5.opt(_ZN4gem52o33LSQ10LSQRequestC2EPNS0_7LSQUnitERKNS_14RefCountingPtrINS0_7DynInstEEEbRKmRKjRKNS_5FlagsImEEPhPmSt10unique_ptrINS_15AtomicOpFunctorESt14default_deleteISL_EEb+0x202)[0x56aa68cd23b2]
./build/X86/gem5.opt(_ZN4gem52o33LSQ11pushRequestERKNS_14RefCountingPtrINS0_7DynInstEEEbPhjmNS_5FlagsImEEPmSt10unique_ptrINS_15AtomicOpFunctorESt14default_deleteISC_EERKSt6vectorIbSaIbEE+0x46d)[0x56aa68cd8dfd]
./build/X86/gem5.opt(_ZN4gem52o37DynInst15initiateMemReadEmjNS_5FlagsImEERKSt6vectorIbSaIbEE+0x86)[0x56aa68c99156]
./build/X86/gem5.opt(+0xfdaeb7)[0x56aa68981eb7]
./build/X86/gem5.opt(_ZNK4gem510X86ISAInst5LdBig11initiateAccEPNS_11ExecContextEPNS_5trace10InstRecordE+0xda)[0x56aa689ae9ba]
./build/X86/gem5.opt(_ZN4gem52o37DynInst11initiateAccEv+0x47)[0x56aa68c96fc7]
./build/X86/gem5.opt(_ZN4gem52o37LSQUnit11executeLoadERKNS_14RefCountingPtrINS0_7DynInstEEE+0x5d)[0x56aa68cee68d]
./build/X86/gem5.opt(_ZN4gem52o33LSQ11executeLoadERKNS_14RefCountingPtrINS0_7DynInstEEE+0x3b)[0x56aa68cd0d8b]
./build/X86/gem5.opt(_ZN4gem52o33IEW12executeInstsEv+0x816)[0x56aa68cba496]
./build/X86/gem5.opt(_ZN4gem52o33IEW4tickEv+0x4f8)[0x56aa68cbb698]
./build/X86/gem5.opt(_ZN4gem52o33CPU4tickEv+0x156)[0x56aa68c80956]
./build/X86/gem5.opt(_ZN4gem510EventQueue10serviceOneEv+0xb7)[0x56aa695ffeb7]
./build/X86/gem5.opt(_ZN4gem59doSimLoopEPNS_10EventQueueE+0x78)[0x56aa6962d798]
./build/X86/gem5.opt(_ZN4gem58simulateEm+0x27d)[0x56aa6962df5d]
./build/X86/gem5.opt(+0xb9dd20)[0x56aa68544d20]
./build/X86/gem5.opt(+0xa4c1ae)[0x56aa683f31ae]
/lib/x86_64-linux-gnu/libpython3.12.so.1.0(+0x1dbe88)[0x73e5657dbe88]
/lib/x86_64-linux-gnu/libpython3.12.so.1.0(_PyObject_Call+0x5c)[0x73e56578482c]
/lib/x86_64-linux-gnu/libpython3.12.so.1.0(_PyEval_EvalFrameDefault+0x8ec)[0x73e565719dec]
/lib/x86_64-linux-gnu/libpython3.12.so.1.0(PyEval_EvalCode+0x20f)[0x73e56589d1ff]
/lib/x86_64-linux-gnu/libpython3.12.so.1.0(+0x299180)[0x73e565899180]
/lib/x86_64-linux-gnu/libpython3.12.so.1.0(+0x1dc4ac)[0x73e5657dc4ac]
/lib/x86_64-linux-gnu/libpython3.12.so.1.0(PyObject_Vectorcall+0x5c)[0x73e565782afc]
/lib/x86_64-linux-gnu/libpython3.12.so.1.0(_PyEval_EvalFrameDefault+0x40ee)[0x73e56571d5ee]
--- END LIBC BACKTRACE ---
For more info on how to address this issue, please visit https://www.gem5.org/documentation/general_docs/common-errors/ 

