Global frequency set at 1000000000000 ticks per second
gem5 Simulator System.  https://www.gem5.org
gem5 is copyrighted software; use the --copyright option for details.

gem5 version 24.0.0.1
gem5 compiled Apr  1 2026 14:53:48
gem5 started Apr  1 2026 14:57:18
gem5 executing on spectral, pid 4146268
command line: ./build/X86/gem5.opt --debug-flags=Rename configs/deprecated/example/se.py --cmd=./my-progs/exit -n 1 --mem-type SimpleMemory --caches --l2cache --cpu-type DerivO3CPU --maxinsts=1000000

**** REAL SIMULATION ****
      0: system.cpu.rename: Processing [tid:0]
      0: system.cpu.rename: [tid:0] Free IQ: 559, Free ROB: 918, Free LQ: 132, Free SQ: 72, FreeRM 127(879 870 917 1834 127 8 4585)
      0: system.cpu.rename: [tid:0] 0 instructions not yet in ROB
      0: system.cpu.rename: calcFreeLQEntries: free lqEntries: 132, loadsInProgress: 0, loads dispatchedToLQ: 0
      0: system.cpu.rename: [tid:0] Not blocked, so attempting to run stage.
      0: system.cpu.rename: [tid:0] Nothing to do, breaking out early.
    500: system.cpu.rename: Processing [tid:0]
    500: system.cpu.rename: [tid:0] Free IQ: 559, Free ROB: 918, Free LQ: 132, Free SQ: 72, FreeRM 127(879 870 917 1834 127 8 4585)
    500: system.cpu.rename: [tid:0] 0 instructions not yet in ROB
    500: system.cpu.rename: [tid:0] Squashing instructions due to squash from commit.
    500: system.cpu.rename: [tid:0] [squash sn:0] Squashing instructions.
   1000: system.cpu.rename: Processing [tid:0]
   1000: system.cpu.rename: [tid:0] Free IQ: 559, Free ROB: 918, Free LQ: 132, Free SQ: 72, FreeRM 127(879 870 917 1834 127 8 4585)
   1000: system.cpu.rename: [tid:0] 0 instructions not yet in ROB
   1000: system.cpu.rename: calcFreeLQEntries: free lqEntries: 132, loadsInProgress: 0, loads dispatchedToLQ: 0
   1000: system.cpu.rename: [tid:0] Done squashing, switching to running.
   1000: system.cpu.rename: [tid:0] Not blocked, so attempting to run stage.
   1000: system.cpu.rename: [tid:0] Nothing to do, breaking out early.
   1500: system.cpu.rename: Processing [tid:0]
   1500: system.cpu.rename: [tid:0] Free IQ: 559, Free ROB: 918, Free LQ: 132, Free SQ: 72, FreeRM 127(879 870 917 1834 127 8 4585)
   1500: system.cpu.rename: [tid:0] 0 instructions not yet in ROB
   1500: system.cpu.rename: calcFreeLQEntries: free lqEntries: 132, loadsInProgress: 0, loads dispatchedToLQ: 0
   1500: system.cpu.rename: [tid:0] Not blocked, so attempting to run stage.
   1500: system.cpu.rename: [tid:0] Nothing to do, breaking out early.
   2000: system.cpu.rename: Processing [tid:0]
   2000: system.cpu.rename: [tid:0] Free IQ: 559, Free ROB: 918, Free LQ: 132, Free SQ: 72, FreeRM 127(879 870 917 1834 127 8 4585)
   2000: system.cpu.rename: [tid:0] 0 instructions not yet in ROB
   2000: system.cpu.rename: calcFreeLQEntries: free lqEntries: 132, loadsInProgress: 0, loads dispatchedToLQ: 0
   2000: system.cpu.rename: [tid:0] Not blocked, so attempting to run stage.
   2000: system.cpu.rename: [tid:0] Nothing to do, breaking out early.
   2500: system.cpu.rename: Processing [tid:0]
   2500: system.cpu.rename: [tid:0] Free IQ: 559, Free ROB: 918, Free LQ: 132, Free SQ: 72, FreeRM 127(879 870 917 1834 127 8 4585)
   2500: system.cpu.rename: [tid:0] 0 instructions not yet in ROB
   2500: system.cpu.rename: calcFreeLQEntries: free lqEntries: 132, loadsInProgress: 0, loads dispatchedToLQ: 0
   2500: system.cpu.rename: [tid:0] Not blocked, so attempting to run stage.
   2500: system.cpu.rename: [tid:0] Nothing to do, breaking out early.
   3000: system.cpu.rename: Processing [tid:0]
   3000: system.cpu.rename: [tid:0] Free IQ: 559, Free ROB: 918, Free LQ: 132, Free SQ: 72, FreeRM 127(879 870 917 1834 127 8 4585)
   3000: system.cpu.rename: [tid:0] 0 instructions not yet in ROB
   3000: system.cpu.rename: calcFreeLQEntries: free lqEntries: 132, loadsInProgress: 0, loads dispatchedToLQ: 0
   3000: system.cpu.rename: [tid:0] Not blocked, so attempting to run stage.
   3000: system.cpu.rename: [tid:0] Nothing to do, breaking out early.
   3500: system.cpu.rename: Processing [tid:0]
   3500: system.cpu.rename: [tid:0] Free IQ: 559, Free ROB: 918, Free LQ: 132, Free SQ: 72, FreeRM 127(879 870 917 1834 127 8 4585)
   3500: system.cpu.rename: [tid:0] 0 instructions not yet in ROB
   3500: system.cpu.rename: calcFreeLQEntries: free lqEntries: 132, loadsInProgress: 0, loads dispatchedToLQ: 0
   3500: system.cpu.rename: [tid:0] Not blocked, so attempting to run stage.
   3500: system.cpu.rename: [tid:0] Nothing to do, breaking out early.
   4000: system.cpu.rename: Processing [tid:0]
   4000: system.cpu.rename: [tid:0] Free IQ: 559, Free ROB: 918, Free LQ: 132, Free SQ: 72, FreeRM 127(879 870 917 1834 127 8 4585)
   4000: system.cpu.rename: [tid:0] 0 instructions not yet in ROB
   4000: system.cpu.rename: calcFreeLQEntries: free lqEntries: 132, loadsInProgress: 0, loads dispatchedToLQ: 0
   4000: system.cpu.rename: [tid:0] Not blocked, so attempting to run stage.
   4000: system.cpu.rename: [tid:0] Nothing to do, breaking out early.
   4500: system.cpu.rename: Processing [tid:0]
   4500: system.cpu.rename: [tid:0] Free IQ: 559, Free ROB: 918, Free LQ: 132, Free SQ: 72, FreeRM 127(879 870 917 1834 127 8 4585)
   4500: system.cpu.rename: [tid:0] 0 instructions not yet in ROB
   4500: system.cpu.rename: calcFreeLQEntries: free lqEntries: 132, loadsInProgress: 0, loads dispatchedToLQ: 0
   4500: system.cpu.rename: [tid:0] Not blocked, so attempting to run stage.
   4500: system.cpu.rename: [tid:0] Nothing to do, breaking out early.
   5000: system.cpu.rename: Processing [tid:0]
   5000: system.cpu.rename: [tid:0] Free IQ: 559, Free ROB: 918, Free LQ: 132, Free SQ: 72, FreeRM 127(879 870 917 1834 127 8 4585)
   5000: system.cpu.rename: [tid:0] 0 instructions not yet in ROB
   5000: system.cpu.rename: calcFreeLQEntries: free lqEntries: 132, loadsInProgress: 0, loads dispatchedToLQ: 0
   5000: system.cpu.rename: [tid:0] Not blocked, so attempting to run stage.
   5000: system.cpu.rename: [tid:0] Nothing to do, breaking out early.
   5500: system.cpu.rename: Processing [tid:0]
   5500: system.cpu.rename: [tid:0] Free IQ: 559, Free ROB: 918, Free LQ: 132, Free SQ: 72, FreeRM 127(879 870 917 1834 127 8 4585)
   5500: system.cpu.rename: [tid:0] 0 instructions not yet in ROB
   5500: system.cpu.rename: calcFreeLQEntries: free lqEntries: 132, loadsInProgress: 0, loads dispatchedToLQ: 0
   5500: system.cpu.rename: [tid:0] Not blocked, so attempting to run stage.
   5500: system.cpu.rename: [tid:0] Nothing to do, breaking out early.
  64000: system.cpu.rename: Processing [tid:0]
  64000: system.cpu.rename: [tid:0] Free IQ: 559, Free ROB: 918, Free LQ: 132, Free SQ: 72, FreeRM 127(879 870 917 1834 127 8 4585)
  64000: system.cpu.rename: [tid:0] 0 instructions not yet in ROB
  64000: system.cpu.rename: calcFreeLQEntries: free lqEntries: 132, loadsInProgress: 0, loads dispatchedToLQ: 0
  64000: system.cpu.rename: [tid:0] Not blocked, so attempting to run stage.
  64000: system.cpu.rename: [tid:0] Nothing to do, breaking out early.
  64500: system.cpu.rename: Processing [tid:0]
  64500: system.cpu.rename: [tid:0] Free IQ: 559, Free ROB: 918, Free LQ: 132, Free SQ: 72, FreeRM 127(879 870 917 1834 127 8 4585)
  64500: system.cpu.rename: [tid:0] 0 instructions not yet in ROB
  64500: system.cpu.rename: calcFreeLQEntries: free lqEntries: 132, loadsInProgress: 0, loads dispatchedToLQ: 0
  64500: system.cpu.rename: [tid:0] Not blocked, so attempting to run stage.
  64500: system.cpu.rename: [tid:0] Nothing to do, breaking out early.
  65000: system.cpu.rename: Processing [tid:0]
  65000: system.cpu.rename: [tid:0] Free IQ: 559, Free ROB: 918, Free LQ: 132, Free SQ: 72, FreeRM 127(879 870 917 1834 127 8 4585)
  65000: system.cpu.rename: [tid:0] 0 instructions not yet in ROB
  65000: system.cpu.rename: calcFreeLQEntries: free lqEntries: 132, loadsInProgress: 0, loads dispatchedToLQ: 0
  65000: system.cpu.rename: [tid:0] Not blocked, so attempting to run stage.
  65000: system.cpu.rename: [tid:0] 10 available instructions to send iew.
  65000: system.cpu.rename: [tid:0] 0 insts pipelining from Rename | 0 insts dispatched to IQ last cycle.
  65000: system.cpu.rename: [tid:0] Sending instructions to IEW.
  65000: system.cpu.rename: [tid:0] Processing instruction [sn:1] with PC (0x401000=>0x401004).(0=>1).
  65000: global: Renamed reg t1 to physical reg 39 (39) old mapping was 17 (17)
  65000: system.cpu.rename: [tid:0] Renaming arch reg 17 (integer) to physical reg 39 (39).
  65000: system.cpu.rename: [tid:0] [sn:1] Adding instruction to history buffer (size=1).
  65000: system.cpu.rename: [tid:0] Sending instructions to IEW.
  65000: system.cpu.rename: [tid:0] Processing instruction [sn:2] with PC (0x401000=>0x401004).(1=>2).
  65000: system.cpu.rename: [tid:0] Looking up integer arch reg 4, got phys reg 4 (integer)
  65000: system.cpu.rename: [tid:0] Register 4 (flat: 4) (integer) is ready.
  65000: system.cpu.rename: [tid:0] Looking up integer arch reg 17, got phys reg 39 (integer)
  65000: system.cpu.rename: [tid:0] Register 39 (flat: 39) (integer) is not ready.
  65000: system.cpu.rename: [tid:0] Looking up invalid arch reg 0, got phys reg 4294967295 (invalid)
  65000: system.cpu.rename: [tid:0] Register 4294967295 (flat: 4294967295) (invalid) is ready.
  65000: system.cpu.rename: [tid:0] Looking up invalid arch reg 0, got phys reg 4294967295 (invalid)
  65000: system.cpu.rename: [tid:0] Register 4294967295 (flat: 4294967295) (invalid) is ready.
  65000: system.cpu.rename: [tid:0] Looking up invalid arch reg 0, got phys reg 4294967295 (invalid)
  65000: system.cpu.rename: [tid:0] Register 4294967295 (flat: 4294967295) (invalid) is ready.
  65000: system.cpu.rename: [tid:0] Looking up invalid arch reg 0, got phys reg 4294967295 (invalid)
  65000: system.cpu.rename: [tid:0] Register 4294967295 (flat: 4294967295) (invalid) is ready.
  65000: system.cpu.rename: [tid:0] Looking up invalid arch reg 0, got phys reg 4294967295 (invalid)
  65000: system.cpu.rename: [tid:0] Register 4294967295 (flat: 4294967295) (invalid) is ready.
  65000: global: Renamed reg rsp to physical reg 40 (40) old mapping was 4 (4)
  65000: system.cpu.rename: [tid:0] Renaming arch reg 4 (integer) to physical reg 40 (40).
  65000: system.cpu.rename: [tid:0] [sn:2] Adding instruction to history buffer (size=2).
  65000: global: Renamed reg condition_code[0] to physical reg 4731 (4731) old mapping was 4726 (4726)
  65000: system.cpu.rename: [tid:0] Renaming arch reg 0 (condition_code) to physical reg 5 (4731).
  65000: system.cpu.rename: [tid:0] [sn:2] Adding instruction to history buffer (size=3).
  65000: global: Renamed reg condition_code[1] to physical reg 4732 (4732) old mapping was 4727 (4727)
  65000: system.cpu.rename: [tid:0] Renaming arch reg 1 (condition_code) to physical reg 6 (4732).
  65000: system.cpu.rename: [tid:0] [sn:2] Adding instruction to history buffer (size=4).
  65000: system.cpu.rename: [tid:0] Renaming arch reg 0 (invalid) to physical reg 4294967295 (4294967295).
  65000: system.cpu.rename: [tid:0] [sn:2] Adding instruction to history buffer (size=5).
  65000: system.cpu.rename: [tid:0] Renaming arch reg 0 (invalid) to physical reg 4294967295 (4294967295).
  65000: system.cpu.rename: [tid:0] [sn:2] Adding instruction to history buffer (size=6).
  65000: system.cpu.rename: [tid:0] Renaming arch reg 0 (invalid) to physical reg 4294967295 (4294967295).
  65000: system.cpu.rename: [tid:0] [sn:2] Adding instruction to history buffer (size=7).
  65000: system.cpu.rename: [tid:0] Sending instructions to IEW.
  65000: system.cpu.rename: [tid:0] Processing instruction [sn:3] with PC (0x401004=>0x40100b).(0=>1).
  65000: global: Renamed reg t1 to physical reg 41 (41) old mapping was 39 (39)
  65000: system.cpu.rename: [tid:0] Renaming arch reg 17 (integer) to physical reg 41 (41).
  65000: system.cpu.rename: [tid:0] [sn:3] Adding instruction to history buffer (size=8).
  65000: system.cpu.rename: [tid:0] Sending instructions to IEW.
  65000: system.cpu.rename: calcFreeSQEntries: free sqEntries: 72, storesInProgress: 0, stores dispatchedToSQ: 0
  65000: system.cpu.rename: [tid:0] Processing instruction [sn:4] with PC (0x401004=>0x40100b).(1=>2).
  65000: system.cpu.rename: [tid:0] Looking up invalid arch reg 0, got phys reg 4294967295 (invalid)
  65000: system.cpu.rename: [tid:0] Register 4294967295 (flat: 4294967295) (invalid) is ready.
  65000: system.cpu.rename: [tid:0] Looking up integer arch reg 4, got phys reg 40 (integer)
  65000: system.cpu.rename: [tid:0] Register 40 (flat: 40) (integer) is not ready.
  65000: system.cpu.rename: [tid:0] Looking up integer arch reg 17, got phys reg 41 (integer)
  65000: system.cpu.rename: [tid:0] Register 41 (flat: 41) (integer) is not ready.
  65000: system.cpu.rename: [tid:0] Looking up miscellaneous arch reg 154, got phys reg 154 (miscellaneous)
  65000: system.cpu.rename: [tid:0] Register 154 (flat: 0) (miscellaneous) is ready.
  65000: system.cpu.rename: [tid:0] Sending instructions to IEW.
  65000: system.cpu.rename: calcFreeLQEntries: free lqEntries: 132, loadsInProgress: 0, loads dispatchedToLQ: 0
  65000: system.cpu.rename: [tid:0] Processing instruction [sn:5] with PC (0x40100b=>0x40100e).(0=>1).
  65000: system.cpu.rename: [tid:0] Looking up invalid arch reg 0, got phys reg 4294967295 (invalid)
  65000: system.cpu.rename: [tid:0] Register 4294967295 (flat: 4294967295) (invalid) is ready.
  65000: system.cpu.rename: [tid:0] Looking up integer arch reg 4, got phys reg 40 (integer)
  65000: system.cpu.rename: [tid:0] Register 40 (flat: 40) (integer) is not ready.
  65000: system.cpu.rename: [tid:0] Looking up miscellaneous arch reg 154, got phys reg 154 (miscellaneous)
  65000: system.cpu.rename: [tid:0] Register 154 (flat: 0) (miscellaneous) is ready.
  65000: system.cpu.rename: Bypassing Load [sn:5] speculatively.
  65000: system.cpu.rename: [tid:0] Sending instructions to IEW.
  65000: system.cpu.rename: [tid:0] Processing instruction [sn:6] with PC (0x40100e=>0x401015).(0=>1).
  65000: global: Renamed reg rax to physical reg 42 (42) old mapping was 0 (0)
  65000: system.cpu.rename: [tid:0] Renaming arch reg 0 (integer) to physical reg 42 (42).
  65000: system.cpu.rename: [tid:0] [sn:6] Adding instruction to history buffer (size=10).
  65000: system.cpu.rename: [tid:0] Sending instructions to IEW.
  65000: system.cpu.rename: [tid:0] Processing instruction [sn:7] with PC (0x401015=>0x401018).(0=>1).
  65000: system.cpu.rename: [tid:0] Looking up integer arch reg 7, got phys reg 7 (integer)
  65000: system.cpu.rename: [tid:0] Register 7 (flat: 7) (integer) is ready.
  65000: system.cpu.rename: [tid:0] Looking up integer arch reg 7, got phys reg 7 (integer)
  65000: system.cpu.rename: [tid:0] Register 7 (flat: 7) (integer) is ready.
  65000: system.cpu.rename: [tid:0] Looking up invalid arch reg 0, got phys reg 4294967295 (invalid)
  65000: system.cpu.rename: [tid:0] Register 4294967295 (flat: 4294967295) (invalid) is ready.
  65000: system.cpu.rename: [tid:0] Looking up invalid arch reg 0, got phys reg 4294967295 (invalid)
  65000: system.cpu.rename: [tid:0] Register 4294967295 (flat: 4294967295) (invalid) is ready.
  65000: system.cpu.rename: [tid:0] Looking up invalid arch reg 0, got phys reg 4294967295 (invalid)
  65000: system.cpu.rename: [tid:0] Register 4294967295 (flat: 4294967295) (invalid) is ready.
  65000: system.cpu.rename: [tid:0] Looking up invalid arch reg 0, got phys reg 4294967295 (invalid)
  65000: system.cpu.rename: [tid:0] Register 4294967295 (flat: 4294967295) (invalid) is ready.
  65000: system.cpu.rename: [tid:0] Looking up invalid arch reg 0, got phys reg 4294967295 (invalid)
  65000: system.cpu.rename: [tid:0] Register 4294967295 (flat: 4294967295) (invalid) is ready.
  65000: global: Renamed reg rdi to physical reg 43 (43) old mapping was 7 (7)
  65000: system.cpu.rename: [tid:0] Renaming arch reg 7 (integer) to physical reg 43 (43).
  65000: system.cpu.rename: [tid:0] [sn:7] Adding instruction to history buffer (size=11).
  65000: global: Renamed reg condition_code[0] to physical reg 4733 (4733) old mapping was 4731 (4731)
  65000: system.cpu.rename: [tid:0] Renaming arch reg 0 (condition_code) to physical reg 7 (4733).
  65000: system.cpu.rename: [tid:0] [sn:7] Adding instruction to history buffer (size=12).
  65000: global: Renamed reg condition_code[1] to physical reg 4734 (4734) old mapping was 4732 (4732)
  65000: system.cpu.rename: [tid:0] Renaming arch reg 1 (condition_code) to physical reg 8 (4734).
  65000: system.cpu.rename: [tid:0] [sn:7] Adding instruction to history buffer (size=13).
  65000: system.cpu.rename: [tid:0] Renaming arch reg 0 (invalid) to physical reg 4294967295 (4294967295).
  65000: system.cpu.rename: [tid:0] [sn:7] Adding instruction to history buffer (size=14).
  65000: system.cpu.rename: [tid:0] Renaming arch reg 0 (invalid) to physical reg 4294967295 (4294967295).
  65000: system.cpu.rename: [tid:0] [sn:7] Adding instruction to history buffer (size=15).
  65000: system.cpu.rename: [tid:0] Renaming arch reg 0 (invalid) to physical reg 4294967295 (4294967295).
  65000: system.cpu.rename: [tid:0] [sn:7] Adding instruction to history buffer (size=16).
  65000: system.cpu.rename: [tid:0] Sending instructions to IEW.
  65000: system.cpu.rename: [tid:0] Processing instruction [sn:8] with PC (0x401018=>0x40101c).(0=>1).
  65000: global: Renamed reg t1 to physical reg 44 (44) old mapping was 41 (41)
  65000: system.cpu.rename: [tid:0] Renaming arch reg 17 (integer) to physical reg 44 (44).
  65000: system.cpu.rename: [tid:0] [sn:8] Adding instruction to history buffer (size=17).
  65000: system.cpu.rename: [tid:0] Sending instructions to IEW.
  65000: system.cpu.rename: [tid:0] Processing instruction [sn:9] with PC (0x401018=>0x40101c).(1=>2).
  65000: system.cpu.rename: [tid:0] Looking up integer arch reg 4, got phys reg 40 (integer)
  65000: system.cpu.rename: [tid:0] Register 40 (flat: 40) (integer) is not ready.
  65000: system.cpu.rename: [tid:0] Looking up integer arch reg 17, got phys reg 44 (integer)
  65000: system.cpu.rename: [tid:0] Register 44 (flat: 44) (integer) is not ready.
  65000: system.cpu.rename: [tid:0] Looking up invalid arch reg 0, got phys reg 4294967295 (invalid)
  65000: system.cpu.rename: [tid:0] Register 4294967295 (flat: 4294967295) (invalid) is ready.
  65000: system.cpu.rename: [tid:0] Looking up invalid arch reg 0, got phys reg 4294967295 (invalid)
  65000: system.cpu.rename: [tid:0] Register 4294967295 (flat: 4294967295) (invalid) is ready.
  65000: system.cpu.rename: [tid:0] Looking up invalid arch reg 0, got phys reg 4294967295 (invalid)
  65000: system.cpu.rename: [tid:0] Register 4294967295 (flat: 4294967295) (invalid) is ready.
  65000: system.cpu.rename: [tid:0] Looking up invalid arch reg 0, got phys reg 4294967295 (invalid)
  65000: system.cpu.rename: [tid:0] Register 4294967295 (flat: 4294967295) (invalid) is ready.
  65000: system.cpu.rename: [tid:0] Looking up invalid arch reg 0, got phys reg 4294967295 (invalid)
  65000: system.cpu.rename: [tid:0] Register 4294967295 (flat: 4294967295) (invalid) is ready.
  65000: global: Renamed reg rsp to physical reg 45 (45) old mapping was 40 (40)
  65000: system.cpu.rename: [tid:0] Renaming arch reg 4 (integer) to physical reg 45 (45).
  65000: system.cpu.rename: [tid:0] [sn:9] Adding instruction to history buffer (size=18).
  65000: global: Renamed reg condition_code[0] to physical reg 4735 (4735) old mapping was 4733 (4733)
  65000: system.cpu.rename: [tid:0] Renaming arch reg 0 (condition_code) to physical reg 9 (4735).
  65000: system.cpu.rename: [tid:0] [sn:9] Adding instruction to history buffer (size=19).
  65000: global: Renamed reg condition_code[1] to physical reg 4736 (4736) old mapping was 4734 (4734)
  65000: system.cpu.rename: [tid:0] Renaming arch reg 1 (condition_code) to physical reg 10 (4736).
  65000: system.cpu.rename: [tid:0] [sn:9] Adding instruction to history buffer (size=20).
  65000: system.cpu.rename: [tid:0] Renaming arch reg 0 (invalid) to physical reg 4294967295 (4294967295).
  65000: system.cpu.rename: [tid:0] [sn:9] Adding instruction to history buffer (size=21).
  65000: system.cpu.rename: [tid:0] Renaming arch reg 0 (invalid) to physical reg 4294967295 (4294967295).
  65000: system.cpu.rename: [tid:0] [sn:9] Adding instruction to history buffer (size=22).
  65000: system.cpu.rename: [tid:0] Renaming arch reg 0 (invalid) to physical reg 4294967295 (4294967295).
  65000: system.cpu.rename: [tid:0] [sn:9] Adding instruction to history buffer (size=23).
  65000: system.cpu.rename: [tid:0] Sending instructions to IEW.
  65000: system.cpu.rename: [tid:0] Processing instruction [sn:10] with PC (0x40101c=>0x40101e).(0=>1).
  65500: system.cpu.rename: Processing [tid:0]
  65500: system.cpu.rename: [tid:0] Free IQ: 559, Free ROB: 918, Free LQ: 132, Free SQ: 72, FreeRM 127(872 870 917 1834 127 8 4579)
  65500: system.cpu.rename: [tid:0] 10 instructions not yet in ROB
  65500: system.cpu.rename: calcFreeLQEntries: free lqEntries: 132, loadsInProgress: 1, loads dispatchedToLQ: 0
  65500: system.cpu.rename: [tid:0] Not blocked, so attempting to run stage.
  65500: system.cpu.rename: [tid:0] 10 available instructions to send iew.
  65500: system.cpu.rename: [tid:0] 10 insts pipelining from Rename | 0 insts dispatched to IQ last cycle.
  65500: system.cpu.rename: [tid:0] Sending instructions to IEW.
  65500: system.cpu.rename: calcFreeLQEntries: free lqEntries: 132, loadsInProgress: 1, loads dispatchedToLQ: 0
  65500: system.cpu.rename: [tid:0] Processing instruction [sn:11] with PC (0x40101e=>0x401020).(0=>1).
  65500: system.cpu.rename: [tid:0] Looking up invalid arch reg 0, got phys reg 4294967295 (invalid)
  65500: system.cpu.rename: [tid:0] Register 4294967295 (flat: 4294967295) (invalid) is ready.
  65500: system.cpu.rename: [tid:0] Looking up integer arch reg 0, got phys reg 42 (integer)
  65500: system.cpu.rename: [tid:0] Register 42 (flat: 42) (integer) is not ready.
  65500: system.cpu.rename: [tid:0] Looking up integer arch reg 17, got phys reg 44 (integer)
  65500: system.cpu.rename: [tid:0] Register 44 (flat: 44) (integer) is not ready.
  65500: system.cpu.rename: [tid:0] Looking up miscellaneous arch reg 155, got phys reg 155 (miscellaneous)
  65500: system.cpu.rename: [tid:0] Register 155 (flat: 0) (miscellaneous) is ready.
  65500: global: Renamed reg t1 to physical reg 46 (46) old mapping was 44 (44)
  65500: system.cpu.rename: [tid:0] Renaming arch reg 17 (integer) to physical reg 46 (46).
  65500: system.cpu.rename: [tid:0] [sn:11] Adding instruction to history buffer (size=24).
  65500: system.cpu.rename: [tid:0] Sending instructions to IEW.
  65500: system.cpu.rename: [tid:0] Processing instruction [sn:12] with PC (0x40101e=>0x401020).(1=>2).
  65500: system.cpu.rename: [tid:0] Looking up integer arch reg 17, got phys reg 46 (integer)
  65500: system.cpu.rename: [tid:0] Register 46 (flat: 46) (integer) is not ready.
  65500: system.cpu.rename: [tid:0] Looking up integer arch reg 0, got phys reg 42 (integer)
  65500: system.cpu.rename: [tid:0] Register 42 (flat: 42) (integer) is not ready.
  65500: system.cpu.rename: [tid:0] Looking up integer arch reg 17, got phys reg 46 (integer)
  65500: system.cpu.rename: [tid:0] Register 46 (flat: 46) (integer) is not ready.
  65500: system.cpu.rename: [tid:0] Looking up invalid arch reg 0, got phys reg 4294967295 (invalid)
  65500: system.cpu.rename: [tid:0] Register 4294967295 (flat: 4294967295) (invalid) is ready.
  65500: system.cpu.rename: [tid:0] Looking up invalid arch reg 0, got phys reg 4294967295 (invalid)
  65500: system.cpu.rename: [tid:0] Register 4294967295 (flat: 4294967295) (invalid) is ready.
  65500: system.cpu.rename: [tid:0] Looking up invalid arch reg 0, got phys reg 4294967295 (invalid)
  65500: system.cpu.rename: [tid:0] Register 4294967295 (flat: 4294967295) (invalid) is ready.
  65500: system.cpu.rename: [tid:0] Looking up invalid arch reg 0, got phys reg 4294967295 (invalid)
  65500: system.cpu.rename: [tid:0] Register 4294967295 (flat: 4294967295) (invalid) is ready.
  65500: system.cpu.rename: [tid:0] Looking up invalid arch reg 0, got phys reg 4294967295 (invalid)
  65500: system.cpu.rename: [tid:0] Register 4294967295 (flat: 4294967295) (invalid) is ready.
  65500: global: Renamed reg t1 to physical reg 47 (47) old mapping was 46 (46)
  65500: system.cpu.rename: [tid:0] Renaming arch reg 17 (integer) to physical reg 47 (47).
  65500: system.cpu.rename: [tid:0] [sn:12] Adding instruction to history buffer (size=25).
  65500: global: Renamed reg condition_code[0] to physical reg 4737 (4737) old mapping was 4735 (4735)
  65500: system.cpu.rename: [tid:0] Renaming arch reg 0 (condition_code) to physical reg 11 (4737).
  65500: system.cpu.rename: [tid:0] [sn:12] Adding instruction to history buffer (size=26).
  65500: global: Renamed reg condition_code[1] to physical reg 4738 (4738) old mapping was 4736 (4736)
  65500: system.cpu.rename: [tid:0] Renaming arch reg 1 (condition_code) to physical reg 12 (4738).
  65500: system.cpu.rename: [tid:0] [sn:12] Adding instruction to history buffer (size=27).
  65500: system.cpu.rename: [tid:0] Renaming arch reg 0 (invalid) to physical reg 4294967295 (4294967295).
  65500: system.cpu.rename: [tid:0] [sn:12] Adding instruction to history buffer (size=28).
  65500: system.cpu.rename: [tid:0] Renaming arch reg 0 (invalid) to physical reg 4294967295 (4294967295).
  65500: system.cpu.rename: [tid:0] [sn:12] Adding instruction to history buffer (size=29).
  65500: system.cpu.rename: [tid:0] Renaming arch reg 0 (invalid) to physical reg 4294967295 (4294967295).
  65500: system.cpu.rename: [tid:0] [sn:12] Adding instruction to history buffer (size=30).
  65500: system.cpu.rename: [tid:0] Sending instructions to IEW.
  65500: system.cpu.rename: calcFreeSQEntries: free sqEntries: 72, storesInProgress: 1, stores dispatchedToSQ: 0
  65500: system.cpu.rename: [tid:0] Processing instruction [sn:13] with PC (0x40101e=>0x401020).(2=>3).
  65500: system.cpu.rename: [tid:0] Looking up invalid arch reg 0, got phys reg 4294967295 (invalid)
  65500: system.cpu.rename: [tid:0] Register 4294967295 (flat: 4294967295) (invalid) is ready.
  65500: system.cpu.rename: [tid:0] Looking up integer arch reg 0, got phys reg 42 (integer)
  65500: system.cpu.rename: [tid:0] Register 42 (flat: 42) (integer) is not ready.
  65500: system.cpu.rename: [tid:0] Looking up integer arch reg 17, got phys reg 47 (integer)
  65500: system.cpu.rename: [tid:0] Register 47 (flat: 47) (integer) is not ready.
  65500: system.cpu.rename: [tid:0] Looking up miscellaneous arch reg 155, got phys reg 155 (miscellaneous)
  65500: system.cpu.rename: [tid:0] Register 155 (flat: 0) (miscellaneous) is ready.
  65500: system.cpu.rename: [tid:0] Sending instructions to IEW.
  65500: system.cpu.rename: calcFreeLQEntries: free lqEntries: 132, loadsInProgress: 2, loads dispatchedToLQ: 0
  65500: system.cpu.rename: [tid:0] Processing instruction [sn:14] with PC (0x401020=>0x401022).(0=>1).
  65500: system.cpu.rename: [tid:0] Looking up invalid arch reg 0, got phys reg 4294967295 (invalid)
  65500: system.cpu.rename: [tid:0] Register 4294967295 (flat: 4294967295) (invalid) is ready.
  65500: system.cpu.rename: [tid:0] Looking up integer arch reg 0, got phys reg 42 (integer)
  65500: system.cpu.rename: [tid:0] Register 42 (flat: 42) (integer) is not ready.
  65500: system.cpu.rename: [tid:0] Looking up integer arch reg 17, got phys reg 47 (integer)
  65500: system.cpu.rename: [tid:0] Register 47 (flat: 47) (integer) is not ready.
  65500: system.cpu.rename: [tid:0] Looking up miscellaneous arch reg 155, got phys reg 155 (miscellaneous)
  65500: system.cpu.rename: [tid:0] Register 155 (flat: 0) (miscellaneous) is ready.
  65500: global: Renamed reg t1 to physical reg 48 (48) old mapping was 47 (47)
  65500: system.cpu.rename: [tid:0] Renaming arch reg 17 (integer) to physical reg 48 (48).
  65500: system.cpu.rename: [tid:0] [sn:14] Adding instruction to history buffer (size=31).
  65500: system.cpu.rename: [tid:0] Sending instructions to IEW.
  65500: system.cpu.rename: [tid:0] Processing instruction [sn:15] with PC (0x401020=>0x401022).(1=>2).
  65500: system.cpu.rename: [tid:0] Looking up integer arch reg 17, got phys reg 48 (integer)
  65500: system.cpu.rename: [tid:0] Register 48 (flat: 48) (integer) is not ready.
  65500: system.cpu.rename: [tid:0] Looking up integer arch reg 0, got phys reg 42 (integer)
  65500: system.cpu.rename: [tid:0] Register 42 (flat: 42) (integer) is not ready.
  65500: system.cpu.rename: [tid:0] Looking up integer arch reg 17, got phys reg 48 (integer)
  65500: system.cpu.rename: [tid:0] Register 48 (flat: 48) (integer) is not ready.
  65500: system.cpu.rename: [tid:0] Looking up invalid arch reg 0, got phys reg 4294967295 (invalid)
  65500: system.cpu.rename: [tid:0] Register 4294967295 (flat: 4294967295) (invalid) is ready.
  65500: system.cpu.rename: [tid:0] Looking up invalid arch reg 0, got phys reg 4294967295 (invalid)
  65500: system.cpu.rename: [tid:0] Register 4294967295 (flat: 4294967295) (invalid) is ready.
  65500: system.cpu.rename: [tid:0] Looking up invalid arch reg 0, got phys reg 4294967295 (invalid)
  65500: system.cpu.rename: [tid:0] Register 4294967295 (flat: 4294967295) (invalid) is ready.
  65500: system.cpu.rename: [tid:0] Looking up invalid arch reg 0, got phys reg 4294967295 (invalid)
  65500: system.cpu.rename: [tid:0] Register 4294967295 (flat: 4294967295) (invalid) is ready.
  65500: system.cpu.rename: [tid:0] Looking up invalid arch reg 0, got phys reg 4294967295 (invalid)
  65500: system.cpu.rename: [tid:0] Register 4294967295 (flat: 4294967295) (invalid) is ready.
  65500: global: Renamed reg t1 to physical reg 49 (49) old mapping was 48 (48)
  65500: system.cpu.rename: [tid:0] Renaming arch reg 17 (integer) to physical reg 49 (49).
  65500: system.cpu.rename: [tid:0] [sn:15] Adding instruction to history buffer (size=32).
  65500: global: Renamed reg condition_code[0] to physical reg 4739 (4739) old mapping was 4737 (4737)
  65500: system.cpu.rename: [tid:0] Renaming arch reg 0 (condition_code) to physical reg 13 (4739).
  65500: system.cpu.rename: [tid:0] [sn:15] Adding instruction to history buffer (size=33).
  65500: global: Renamed reg condition_code[1] to physical reg 4740 (4740) old mapping was 4738 (4738)
  65500: system.cpu.rename: [tid:0] Renaming arch reg 1 (condition_code) to physical reg 14 (4740).
  65500: system.cpu.rename: [tid:0] [sn:15] Adding instruction to history buffer (size=34).
  65500: system.cpu.rename: [tid:0] Renaming arch reg 0 (invalid) to physical reg 4294967295 (4294967295).
  65500: system.cpu.rename: [tid:0] [sn:15] Adding instruction to history buffer (size=35).
  65500: system.cpu.rename: [tid:0] Renaming arch reg 0 (invalid) to physical reg 4294967295 (4294967295).
  65500: system.cpu.rename: [tid:0] [sn:15] Adding instruction to history buffer (size=36).
  65500: system.cpu.rename: [tid:0] Renaming arch reg 0 (invalid) to physical reg 4294967295 (4294967295).
  65500: system.cpu.rename: [tid:0] [sn:15] Adding instruction to history buffer (size=37).
  65500: system.cpu.rename: [tid:0] Sending instructions to IEW.
  65500: system.cpu.rename: calcFreeSQEntries: free sqEntries: 72, storesInProgress: 2, stores dispatchedToSQ: 0
  65500: system.cpu.rename: [tid:0] Processing instruction [sn:16] with PC (0x401020=>0x401022).(2=>3).
  65500: system.cpu.rename: [tid:0] Looking up invalid arch reg 0, got phys reg 4294967295 (invalid)
  65500: system.cpu.rename: [tid:0] Register 4294967295 (flat: 4294967295) (invalid) is ready.
  65500: system.cpu.rename: [tid:0] Looking up integer arch reg 0, got phys reg 42 (integer)
  65500: system.cpu.rename: [tid:0] Register 42 (flat: 42) (integer) is not ready.
  65500: system.cpu.rename: [tid:0] Looking up integer arch reg 17, got phys reg 49 (integer)
  65500: system.cpu.rename: [tid:0] Register 49 (flat: 49) (integer) is not ready.
  65500: system.cpu.rename: [tid:0] Looking up miscellaneous arch reg 155, got phys reg 155 (miscellaneous)
  65500: system.cpu.rename: [tid:0] Register 155 (flat: 0) (miscellaneous) is ready.
  65500: system.cpu.rename: [tid:0] Sending instructions to IEW.
  65500: system.cpu.rename: calcFreeLQEntries: free lqEntries: 132, loadsInProgress: 3, loads dispatchedToLQ: 0
  65500: system.cpu.rename: [tid:0] Processing instruction [sn:17] with PC (0x401022=>0x401024).(0=>1).
  65500: system.cpu.rename: [tid:0] Looking up invalid arch reg 0, got phys reg 4294967295 (invalid)
  65500: system.cpu.rename: [tid:0] Register 4294967295 (flat: 4294967295) (invalid) is ready.
  65500: system.cpu.rename: [tid:0] Looking up integer arch reg 0, got phys reg 42 (integer)
  65500: system.cpu.rename: [tid:0] Register 42 (flat: 42) (integer) is not ready.
  65500: system.cpu.rename: [tid:0] Looking up integer arch reg 17, got phys reg 49 (integer)
  65500: system.cpu.rename: [tid:0] Register 49 (flat: 49) (integer) is not ready.
  65500: system.cpu.rename: [tid:0] Looking up miscellaneous arch reg 155, got phys reg 155 (miscellaneous)
  65500: system.cpu.rename: [tid:0] Register 155 (flat: 0) (miscellaneous) is ready.
  65500: global: Renamed reg t1 to physical reg 50 (50) old mapping was 49 (49)
  65500: system.cpu.rename: [tid:0] Renaming arch reg 17 (integer) to physical reg 50 (50).
  65500: system.cpu.rename: [tid:0] [sn:17] Adding instruction to history buffer (size=38).
  65500: system.cpu.rename: [tid:0] Sending instructions to IEW.
  65500: system.cpu.rename: [tid:0] Processing instruction [sn:18] with PC (0x401022=>0x401024).(1=>2).
  65500: system.cpu.rename: [tid:0] Looking up integer arch reg 17, got phys reg 50 (integer)
  65500: system.cpu.rename: [tid:0] Register 50 (flat: 50) (integer) is not ready.
  65500: system.cpu.rename: [tid:0] Looking up integer arch reg 0, got phys reg 42 (integer)
  65500: system.cpu.rename: [tid:0] Register 42 (flat: 42) (integer) is not ready.
  65500: system.cpu.rename: [tid:0] Looking up integer arch reg 17, got phys reg 50 (integer)
  65500: system.cpu.rename: [tid:0] Register 50 (flat: 50) (integer) is not ready.
  65500: system.cpu.rename: [tid:0] Looking up invalid arch reg 0, got phys reg 4294967295 (invalid)
  65500: system.cpu.rename: [tid:0] Register 4294967295 (flat: 4294967295) (invalid) is ready.
  65500: system.cpu.rename: [tid:0] Looking up invalid arch reg 0, got phys reg 4294967295 (invalid)
  65500: system.cpu.rename: [tid:0] Register 4294967295 (flat: 4294967295) (invalid) is ready.
  65500: system.cpu.rename: [tid:0] Looking up invalid arch reg 0, got phys reg 4294967295 (invalid)
  65500: system.cpu.rename: [tid:0] Register 4294967295 (flat: 4294967295) (invalid) is ready.
  65500: system.cpu.rename: [tid:0] Looking up invalid arch reg 0, got phys reg 4294967295 (invalid)
  65500: system.cpu.rename: [tid:0] Register 4294967295 (flat: 4294967295) (invalid) is ready.
  65500: system.cpu.rename: [tid:0] Looking up invalid arch reg 0, got phys reg 4294967295 (invalid)
  65500: system.cpu.rename: [tid:0] Register 4294967295 (flat: 4294967295) (invalid) is ready.
  65500: global: Renamed reg t1 to physical reg 51 (51) old mapping was 50 (50)
  65500: system.cpu.rename: [tid:0] Renaming arch reg 17 (integer) to physical reg 51 (51).
  65500: system.cpu.rename: [tid:0] [sn:18] Adding instruction to history buffer (size=39).
  65500: global: Renamed reg condition_code[0] to physical reg 4741 (4741) old mapping was 4739 (4739)
  65500: system.cpu.rename: [tid:0] Renaming arch reg 0 (condition_code) to physical reg 15 (4741).
  65500: system.cpu.rename: [tid:0] [sn:18] Adding instruction to history buffer (size=40).
  65500: global: Renamed reg condition_code[1] to physical reg 4742 (4742) old mapping was 4740 (4740)
  65500: system.cpu.rename: [tid:0] Renaming arch reg 1 (condition_code) to physical reg 16 (4742).
  65500: system.cpu.rename: [tid:0] [sn:18] Adding instruction to history buffer (size=41).
  65500: system.cpu.rename: [tid:0] Renaming arch reg 0 (invalid) to physical reg 4294967295 (4294967295).
  65500: system.cpu.rename: [tid:0] [sn:18] Adding instruction to history buffer (size=42).
  65500: system.cpu.rename: [tid:0] Renaming arch reg 0 (invalid) to physical reg 4294967295 (4294967295).
  65500: system.cpu.rename: [tid:0] [sn:18] Adding instruction to history buffer (size=43).
  65500: system.cpu.rename: [tid:0] Renaming arch reg 0 (invalid) to physical reg 4294967295 (4294967295).
  65500: system.cpu.rename: [tid:0] [sn:18] Adding instruction to history buffer (size=44).
  65500: system.cpu.rename: [tid:0] Sending instructions to IEW.
  65500: system.cpu.rename: calcFreeSQEntries: free sqEntries: 72, storesInProgress: 3, stores dispatchedToSQ: 0
  65500: system.cpu.rename: [tid:0] Processing instruction [sn:19] with PC (0x401022=>0x401024).(2=>3).
  65500: system.cpu.rename: [tid:0] Looking up invalid arch reg 0, got phys reg 4294967295 (invalid)
  65500: system.cpu.rename: [tid:0] Register 4294967295 (flat: 4294967295) (invalid) is ready.
  65500: system.cpu.rename: [tid:0] Looking up integer arch reg 0, got phys reg 42 (integer)
  65500: system.cpu.rename: [tid:0] Register 42 (flat: 42) (integer) is not ready.
  65500: system.cpu.rename: [tid:0] Looking up integer arch reg 17, got phys reg 51 (integer)
  65500: system.cpu.rename: [tid:0] Register 51 (flat: 51) (integer) is not ready.
  65500: system.cpu.rename: [tid:0] Looking up miscellaneous arch reg 155, got phys reg 155 (miscellaneous)
  65500: system.cpu.rename: [tid:0] Register 155 (flat: 0) (miscellaneous) is ready.
  65500: system.cpu.rename: [tid:0] Sending instructions to IEW.
  65500: system.cpu.rename: calcFreeLQEntries: free lqEntries: 132, loadsInProgress: 4, loads dispatchedToLQ: 0
  65500: system.cpu.rename: [tid:0] Processing instruction [sn:20] with PC (0x401024=>0x401026).(0=>1).
  65500: system.cpu.rename: [tid:0] Looking up invalid arch reg 0, got phys reg 4294967295 (invalid)
  65500: system.cpu.rename: [tid:0] Register 4294967295 (flat: 4294967295) (invalid) is ready.
  65500: system.cpu.rename: [tid:0] Looking up integer arch reg 0, got phys reg 42 (integer)
  65500: system.cpu.rename: [tid:0] Register 42 (flat: 42) (integer) is not ready.
  65500: system.cpu.rename: [tid:0] Looking up integer arch reg 17, got phys reg 51 (integer)
  65500: system.cpu.rename: [tid:0] Register 51 (flat: 51) (integer) is not ready.
  65500: system.cpu.rename: [tid:0] Looking up miscellaneous arch reg 155, got phys reg 155 (miscellaneous)
  65500: system.cpu.rename: [tid:0] Register 155 (flat: 0) (miscellaneous) is ready.
  65500: global: Renamed reg t1 to physical reg 52 (52) old mapping was 51 (51)
  65500: system.cpu.rename: [tid:0] Renaming arch reg 17 (integer) to physical reg 52 (52).
  65500: system.cpu.rename: [tid:0] [sn:20] Adding instruction to history buffer (size=45).
  66000: system.cpu.rename: Processing [tid:0]
  66000: system.cpu.rename: [tid:0] Free IQ: 559, Free ROB: 908, Free LQ: 132, Free SQ: 72, FreeRM 127(865 870 917 1834 127 8 4573)
  66000: system.cpu.rename: [tid:0] 20 instructions not yet in ROB
  66000: system.cpu.rename: calcFreeLQEntries: free lqEntries: 132, loadsInProgress: 5, loads dispatchedToLQ: 0
  66000: system.cpu.rename: [tid:0] Not blocked, so attempting to run stage.
  66000: system.cpu.rename: [tid:0] 10 available instructions to send iew.
  66000: system.cpu.rename: [tid:0] 20 insts pipelining from Rename | 0 insts dispatched to IQ last cycle.
  66000: system.cpu.rename: [tid:0] Sending instructions to IEW.
  66000: system.cpu.rename: [tid:0] Processing instruction [sn:21] with PC (0x401024=>0x401026).(1=>2).
  66000: system.cpu.rename: [tid:0] Looking up integer arch reg 17, got phys reg 52 (integer)
  66000: system.cpu.rename: [tid:0] Register 52 (flat: 52) (integer) is not ready.
  66000: system.cpu.rename: [tid:0] Looking up integer arch reg 0, got phys reg 42 (integer)
  66000: system.cpu.rename: [tid:0] Register 42 (flat: 42) (integer) is not ready.
  66000: system.cpu.rename: [tid:0] Looking up integer arch reg 17, got phys reg 52 (integer)
  66000: system.cpu.rename: [tid:0] Register 52 (flat: 52) (integer) is not ready.
  66000: system.cpu.rename: [tid:0] Looking up invalid arch reg 0, got phys reg 4294967295 (invalid)
  66000: system.cpu.rename: [tid:0] Register 4294967295 (flat: 4294967295) (invalid) is ready.
  66000: system.cpu.rename: [tid:0] Looking up invalid arch reg 0, got phys reg 4294967295 (invalid)
  66000: system.cpu.rename: [tid:0] Register 4294967295 (flat: 4294967295) (invalid) is ready.
  66000: system.cpu.rename: [tid:0] Looking up invalid arch reg 0, got phys reg 4294967295 (invalid)
  66000: system.cpu.rename: [tid:0] Register 4294967295 (flat: 4294967295) (invalid) is ready.
  66000: system.cpu.rename: [tid:0] Looking up invalid arch reg 0, got phys reg 4294967295 (invalid)
  66000: system.cpu.rename: [tid:0] Register 4294967295 (flat: 4294967295) (invalid) is ready.
  66000: system.cpu.rename: [tid:0] Looking up invalid arch reg 0, got phys reg 4294967295 (invalid)
  66000: system.cpu.rename: [tid:0] Register 4294967295 (flat: 4294967295) (invalid) is ready.
  66000: global: Renamed reg t1 to physical reg 53 (53) old mapping was 52 (52)
  66000: system.cpu.rename: [tid:0] Renaming arch reg 17 (integer) to physical reg 53 (53).
  66000: system.cpu.rename: [tid:0] [sn:21] Adding instruction to history buffer (size=46).
  66000: global: Renamed reg condition_code[0] to physical reg 4743 (4743) old mapping was 4741 (4741)
  66000: system.cpu.rename: [tid:0] Renaming arch reg 0 (condition_code) to physical reg 17 (4743).
  66000: system.cpu.rename: [tid:0] [sn:21] Adding instruction to history buffer (size=47).
  66000: global: Renamed reg condition_code[1] to physical reg 4744 (4744) old mapping was 4742 (4742)
  66000: system.cpu.rename: [tid:0] Renaming arch reg 1 (condition_code) to physical reg 18 (4744).
  66000: system.cpu.rename: [tid:0] [sn:21] Adding instruction to history buffer (size=48).
  66000: system.cpu.rename: [tid:0] Renaming arch reg 0 (invalid) to physical reg 4294967295 (4294967295).
  66000: system.cpu.rename: [tid:0] [sn:21] Adding instruction to history buffer (size=49).
  66000: system.cpu.rename: [tid:0] Renaming arch reg 0 (invalid) to physical reg 4294967295 (4294967295).
  66000: system.cpu.rename: [tid:0] [sn:21] Adding instruction to history buffer (size=50).
  66000: system.cpu.rename: [tid:0] Renaming arch reg 0 (invalid) to physical reg 4294967295 (4294967295).
  66000: system.cpu.rename: [tid:0] [sn:21] Adding instruction to history buffer (size=51).
  66000: system.cpu.rename: [tid:0] Sending instructions to IEW.
  66000: system.cpu.rename: calcFreeSQEntries: free sqEntries: 72, storesInProgress: 4, stores dispatchedToSQ: 0
  66000: system.cpu.rename: [tid:0] Processing instruction [sn:22] with PC (0x401024=>0x401026).(2=>3).
  66000: system.cpu.rename: [tid:0] Looking up invalid arch reg 0, got phys reg 4294967295 (invalid)
  66000: system.cpu.rename: [tid:0] Register 4294967295 (flat: 4294967295) (invalid) is ready.
  66000: system.cpu.rename: [tid:0] Looking up integer arch reg 0, got phys reg 42 (integer)
  66000: system.cpu.rename: [tid:0] Register 42 (flat: 42) (integer) is not ready.
  66000: system.cpu.rename: [tid:0] Looking up integer arch reg 17, got phys reg 53 (integer)
  66000: system.cpu.rename: [tid:0] Register 53 (flat: 53) (integer) is not ready.
  66000: system.cpu.rename: [tid:0] Looking up miscellaneous arch reg 155, got phys reg 155 (miscellaneous)
  66000: system.cpu.rename: [tid:0] Register 155 (flat: 0) (miscellaneous) is ready.
  66000: system.cpu.rename: [tid:0] Sending instructions to IEW.
  66000: system.cpu.rename: calcFreeLQEntries: free lqEntries: 132, loadsInProgress: 5, loads dispatchedToLQ: 0
  66000: system.cpu.rename: [tid:0] Processing instruction [sn:23] with PC (0x401026=>0x401028).(0=>1).
  66000: system.cpu.rename: [tid:0] Looking up invalid arch reg 0, got phys reg 4294967295 (invalid)
  66000: system.cpu.rename: [tid:0] Register 4294967295 (flat: 4294967295) (invalid) is ready.
  66000: system.cpu.rename: [tid:0] Looking up integer arch reg 0, got phys reg 42 (integer)
  66000: system.cpu.rename: [tid:0] Register 42 (flat: 42) (integer) is not ready.
  66000: system.cpu.rename: [tid:0] Looking up integer arch reg 17, got phys reg 53 (integer)
  66000: system.cpu.rename: [tid:0] Register 53 (flat: 53) (integer) is not ready.
  66000: system.cpu.rename: [tid:0] Looking up miscellaneous arch reg 155, got phys reg 155 (miscellaneous)
  66000: system.cpu.rename: [tid:0] Register 155 (flat: 0) (miscellaneous) is ready.
  66000: global: Renamed reg t1 to physical reg 54 (54) old mapping was 53 (53)
  66000: system.cpu.rename: [tid:0] Renaming arch reg 17 (integer) to physical reg 54 (54).
  66000: system.cpu.rename: [tid:0] [sn:23] Adding instruction to history buffer (size=52).
  66000: system.cpu.rename: [tid:0] Sending instructions to IEW.
  66000: system.cpu.rename: [tid:0] Processing instruction [sn:24] with PC (0x401026=>0x401028).(1=>2).
  66000: system.cpu.rename: [tid:0] Looking up integer arch reg 17, got phys reg 54 (integer)
  66000: system.cpu.rename: [tid:0] Register 54 (flat: 54) (integer) is not ready.
  66000: system.cpu.rename: [tid:0] Looking up integer arch reg 0, got phys reg 42 (integer)
  66000: system.cpu.rename: [tid:0] Register 42 (flat: 42) (integer) is not ready.
  66000: system.cpu.rename: [tid:0] Looking up integer arch reg 17, got phys reg 54 (integer)
  66000: system.cpu.rename: [tid:0] Register 54 (flat: 54) (integer) is not ready.
  66000: system.cpu.rename: [tid:0] Looking up invalid arch reg 0, got phys reg 4294967295 (invalid)
  66000: system.cpu.rename: [tid:0] Register 4294967295 (flat: 4294967295) (invalid) is ready.
  66000: system.cpu.rename: [tid:0] Looking up invalid arch reg 0, got phys reg 4294967295 (invalid)
  66000: system.cpu.rename: [tid:0] Register 4294967295 (flat: 4294967295) (invalid) is ready.
  66000: system.cpu.rename: [tid:0] Looking up invalid arch reg 0, got phys reg 4294967295 (invalid)
  66000: system.cpu.rename: [tid:0] Register 4294967295 (flat: 4294967295) (invalid) is ready.
  66000: system.cpu.rename: [tid:0] Looking up invalid arch reg 0, got phys reg 4294967295 (invalid)
  66000: system.cpu.rename: [tid:0] Register 4294967295 (flat: 4294967295) (invalid) is ready.
  66000: system.cpu.rename: [tid:0] Looking up invalid arch reg 0, got phys reg 4294967295 (invalid)
  66000: system.cpu.rename: [tid:0] Register 4294967295 (flat: 4294967295) (invalid) is ready.
  66000: global: Renamed reg t1 to physical reg 55 (55) old mapping was 54 (54)
  66000: system.cpu.rename: [tid:0] Renaming arch reg 17 (integer) to physical reg 55 (55).
  66000: system.cpu.rename: [tid:0] [sn:24] Adding instruction to history buffer (size=53).
  66000: global: Renamed reg condition_code[0] to physical reg 4745 (4745) old mapping was 4743 (4743)
  66000: system.cpu.rename: [tid:0] Renaming arch reg 0 (condition_code) to physical reg 19 (4745).
  66000: system.cpu.rename: [tid:0] [sn:24] Adding instruction to history buffer (size=54).
  66000: global: Renamed reg condition_code[1] to physical reg 4746 (4746) old mapping was 4744 (4744)
  66000: system.cpu.rename: [tid:0] Renaming arch reg 1 (condition_code) to physical reg 20 (4746).
  66000: system.cpu.rename: [tid:0] [sn:24] Adding instruction to history buffer (size=55).
  66000: system.cpu.rename: [tid:0] Renaming arch reg 0 (invalid) to physical reg 4294967295 (4294967295).
  66000: system.cpu.rename: [tid:0] [sn:24] Adding instruction to history buffer (size=56).
  66000: system.cpu.rename: [tid:0] Renaming arch reg 0 (invalid) to physical reg 4294967295 (4294967295).
  66000: system.cpu.rename: [tid:0] [sn:24] Adding instruction to history buffer (size=57).
  66000: system.cpu.rename: [tid:0] Renaming arch reg 0 (invalid) to physical reg 4294967295 (4294967295).
  66000: system.cpu.rename: [tid:0] [sn:24] Adding instruction to history buffer (size=58).
  66000: system.cpu.rename: [tid:0] Sending instructions to IEW.
  66000: system.cpu.rename: calcFreeSQEntries: free sqEntries: 72, storesInProgress: 5, stores dispatchedToSQ: 0
  66000: system.cpu.rename: [tid:0] Processing instruction [sn:25] with PC (0x401026=>0x401028).(2=>3).
  66000: system.cpu.rename: [tid:0] Looking up invalid arch reg 0, got phys reg 4294967295 (invalid)
  66000: system.cpu.rename: [tid:0] Register 4294967295 (flat: 4294967295) (invalid) is ready.
  66000: system.cpu.rename: [tid:0] Looking up integer arch reg 0, got phys reg 42 (integer)
  66000: system.cpu.rename: [tid:0] Register 42 (flat: 42) (integer) is not ready.
  66000: system.cpu.rename: [tid:0] Looking up integer arch reg 17, got phys reg 55 (integer)
  66000: system.cpu.rename: [tid:0] Register 55 (flat: 55) (integer) is not ready.
  66000: system.cpu.rename: [tid:0] Looking up miscellaneous arch reg 155, got phys reg 155 (miscellaneous)
  66000: system.cpu.rename: [tid:0] Register 155 (flat: 0) (miscellaneous) is ready.
  66000: system.cpu.rename: [tid:0] Sending instructions to IEW.
  66000: system.cpu.rename: calcFreeLQEntries: free lqEntries: 132, loadsInProgress: 6, loads dispatchedToLQ: 0
  66000: system.cpu.rename: [tid:0] Processing instruction [sn:26] with PC (0x401028=>0x40102a).(0=>1).
  66000: system.cpu.rename: [tid:0] Looking up invalid arch reg 0, got phys reg 4294967295 (invalid)
  66000: system.cpu.rename: [tid:0] Register 4294967295 (flat: 4294967295) (invalid) is ready.
  66000: system.cpu.rename: [tid:0] Looking up integer arch reg 0, got phys reg 42 (integer)
  66000: system.cpu.rename: [tid:0] Register 42 (flat: 42) (integer) is not ready.
  66000: system.cpu.rename: [tid:0] Looking up integer arch reg 17, got phys reg 55 (integer)
  66000: system.cpu.rename: [tid:0] Register 55 (flat: 55) (integer) is not ready.
  66000: system.cpu.rename: [tid:0] Looking up miscellaneous arch reg 155, got phys reg 155 (miscellaneous)
  66000: system.cpu.rename: [tid:0] Register 155 (flat: 0) (miscellaneous) is ready.
  66000: global: Renamed reg t1 to physical reg 56 (56) old mapping was 55 (55)
  66000: system.cpu.rename: [tid:0] Renaming arch reg 17 (integer) to physical reg 56 (56).
  66000: system.cpu.rename: [tid:0] [sn:26] Adding instruction to history buffer (size=59).
  66000: system.cpu.rename: [tid:0] Sending instructions to IEW.
  66000: system.cpu.rename: [tid:0] Processing instruction [sn:27] with PC (0x401028=>0x40102a).(1=>2).
  66000: system.cpu.rename: [tid:0] Looking up integer arch reg 17, got phys reg 56 (integer)
  66000: system.cpu.rename: [tid:0] Register 56 (flat: 56) (integer) is not ready.
  66000: system.cpu.rename: [tid:0] Looking up integer arch reg 0, got phys reg 42 (integer)
  66000: system.cpu.rename: [tid:0] Register 42 (flat: 42) (integer) is not ready.
  66000: system.cpu.rename: [tid:0] Looking up integer arch reg 17, got phys reg 56 (integer)
  66000: system.cpu.rename: [tid:0] Register 56 (flat: 56) (integer) is not ready.
  66000: system.cpu.rename: [tid:0] Looking up invalid arch reg 0, got phys reg 4294967295 (invalid)
  66000: system.cpu.rename: [tid:0] Register 4294967295 (flat: 4294967295) (invalid) is ready.
  66000: system.cpu.rename: [tid:0] Looking up invalid arch reg 0, got phys reg 4294967295 (invalid)
  66000: system.cpu.rename: [tid:0] Register 4294967295 (flat: 4294967295) (invalid) is ready.
  66000: system.cpu.rename: [tid:0] Looking up invalid arch reg 0, got phys reg 4294967295 (invalid)
  66000: system.cpu.rename: [tid:0] Register 4294967295 (flat: 4294967295) (invalid) is ready.
  66000: system.cpu.rename: [tid:0] Looking up invalid arch reg 0, got phys reg 4294967295 (invalid)
  66000: system.cpu.rename: [tid:0] Register 4294967295 (flat: 4294967295) (invalid) is ready.
  66000: system.cpu.rename: [tid:0] Looking up invalid arch reg 0, got phys reg 4294967295 (invalid)
  66000: system.cpu.rename: [tid:0] Register 4294967295 (flat: 4294967295) (invalid) is ready.
  66000: global: Renamed reg t1 to physical reg 57 (57) old mapping was 56 (56)
  66000: system.cpu.rename: [tid:0] Renaming arch reg 17 (integer) to physical reg 57 (57).
  66000: system.cpu.rename: [tid:0] [sn:27] Adding instruction to history buffer (size=60).
  66000: global: Renamed reg condition_code[0] to physical reg 4747 (4747) old mapping was 4745 (4745)
  66000: system.cpu.rename: [tid:0] Renaming arch reg 0 (condition_code) to physical reg 21 (4747).
  66000: system.cpu.rename: [tid:0] [sn:27] Adding instruction to history buffer (size=61).
  66000: global: Renamed reg condition_code[1] to physical reg 4748 (4748) old mapping was 4746 (4746)
  66000: system.cpu.rename: [tid:0] Renaming arch reg 1 (condition_code) to physical reg 22 (4748).
  66000: system.cpu.rename: [tid:0] [sn:27] Adding instruction to history buffer (size=62).
  66000: system.cpu.rename: [tid:0] Renaming arch reg 0 (invalid) to physical reg 4294967295 (4294967295).
  66000: system.cpu.rename: [tid:0] [sn:27] Adding instruction to history buffer (size=63).
  66000: system.cpu.rename: [tid:0] Renaming arch reg 0 (invalid) to physical reg 4294967295 (4294967295).
  66000: system.cpu.rename: [tid:0] [sn:27] Adding instruction to history buffer (size=64).
  66000: system.cpu.rename: [tid:0] Renaming arch reg 0 (invalid) to physical reg 4294967295 (4294967295).
  66000: system.cpu.rename: [tid:0] [sn:27] Adding instruction to history buffer (size=65).
  66000: system.cpu.rename: [tid:0] Sending instructions to IEW.
  66000: system.cpu.rename: calcFreeSQEntries: free sqEntries: 72, storesInProgress: 6, stores dispatchedToSQ: 0
  66000: system.cpu.rename: [tid:0] Processing instruction [sn:28] with PC (0x401028=>0x40102a).(2=>3).
  66000: system.cpu.rename: [tid:0] Looking up invalid arch reg 0, got phys reg 4294967295 (invalid)
  66000: system.cpu.rename: [tid:0] Register 4294967295 (flat: 4294967295) (invalid) is ready.
  66000: system.cpu.rename: [tid:0] Looking up integer arch reg 0, got phys reg 42 (integer)
  66000: system.cpu.rename: [tid:0] Register 42 (flat: 42) (integer) is not ready.
  66000: system.cpu.rename: [tid:0] Looking up integer arch reg 17, got phys reg 57 (integer)
  66000: system.cpu.rename: [tid:0] Register 57 (flat: 57) (integer) is not ready.
  66000: system.cpu.rename: [tid:0] Looking up miscellaneous arch reg 155, got phys reg 155 (miscellaneous)
  66000: system.cpu.rename: [tid:0] Register 155 (flat: 0) (miscellaneous) is ready.
  66000: system.cpu.rename: [tid:0] Sending instructions to IEW.
  66000: system.cpu.rename: calcFreeLQEntries: free lqEntries: 132, loadsInProgress: 7, loads dispatchedToLQ: 0
  66000: system.cpu.rename: [tid:0] Processing instruction [sn:29] with PC (0x40102a=>0x40102c).(0=>1).
  66000: system.cpu.rename: [tid:0] Looking up invalid arch reg 0, got phys reg 4294967295 (invalid)
  66000: system.cpu.rename: [tid:0] Register 4294967295 (flat: 4294967295) (invalid) is ready.
  66000: system.cpu.rename: [tid:0] Looking up integer arch reg 0, got phys reg 42 (integer)
  66000: system.cpu.rename: [tid:0] Register 42 (flat: 42) (integer) is not ready.
  66000: system.cpu.rename: [tid:0] Looking up integer arch reg 17, got phys reg 57 (integer)
  66000: system.cpu.rename: [tid:0] Register 57 (flat: 57) (integer) is not ready.
  66000: system.cpu.rename: [tid:0] Looking up miscellaneous arch reg 155, got phys reg 155 (miscellaneous)
  66000: system.cpu.rename: [tid:0] Register 155 (flat: 0) (miscellaneous) is ready.
  66000: global: Renamed reg t1 to physical reg 58 (58) old mapping was 57 (57)
  66000: system.cpu.rename: [tid:0] Renaming arch reg 17 (integer) to physical reg 58 (58).
  66000: system.cpu.rename: [tid:0] [sn:29] Adding instruction to history buffer (size=66).
  66000: system.cpu.rename: [tid:0] Sending instructions to IEW.
  66000: system.cpu.rename: [tid:0] Processing instruction [sn:30] with PC (0x40102a=>0x40102c).(1=>2).
  66000: system.cpu.rename: [tid:0] Looking up integer arch reg 17, got phys reg 58 (integer)
  66000: system.cpu.rename: [tid:0] Register 58 (flat: 58) (integer) is not ready.
  66000: system.cpu.rename: [tid:0] Looking up integer arch reg 0, got phys reg 42 (integer)
  66000: system.cpu.rename: [tid:0] Register 42 (flat: 42) (integer) is not ready.
  66000: system.cpu.rename: [tid:0] Looking up integer arch reg 17, got phys reg 58 (integer)
  66000: system.cpu.rename: [tid:0] Register 58 (flat: 58) (integer) is not ready.
  66000: system.cpu.rename: [tid:0] Looking up invalid arch reg 0, got phys reg 4294967295 (invalid)
  66000: system.cpu.rename: [tid:0] Register 4294967295 (flat: 4294967295) (invalid) is ready.
  66000: system.cpu.rename: [tid:0] Looking up invalid arch reg 0, got phys reg 4294967295 (invalid)
  66000: system.cpu.rename: [tid:0] Register 4294967295 (flat: 4294967295) (invalid) is ready.
  66000: system.cpu.rename: [tid:0] Looking up invalid arch reg 0, got phys reg 4294967295 (invalid)
  66000: system.cpu.rename: [tid:0] Register 4294967295 (flat: 4294967295) (invalid) is ready.
  66000: system.cpu.rename: [tid:0] Looking up invalid arch reg 0, got phys reg 4294967295 (invalid)
  66000: system.cpu.rename: [tid:0] Register 4294967295 (flat: 4294967295) (invalid) is ready.
  66000: system.cpu.rename: [tid:0] Looking up invalid arch reg 0, got phys reg 4294967295 (invalid)
  66000: system.cpu.rename: [tid:0] Register 4294967295 (flat: 4294967295) (invalid) is ready.
  66000: global: Renamed reg t1 to physical reg 59 (59) old mapping was 58 (58)
  66000: system.cpu.rename: [tid:0] Renaming arch reg 17 (integer) to physical reg 59 (59).
  66000: system.cpu.rename: [tid:0] [sn:30] Adding instruction to history buffer (size=67).
  66000: global: Renamed reg condition_code[0] to physical reg 4749 (4749) old mapping was 4747 (4747)
  66000: system.cpu.rename: [tid:0] Renaming arch reg 0 (condition_code) to physical reg 23 (4749).
  66000: system.cpu.rename: [tid:0] [sn:30] Adding instruction to history buffer (size=68).
  66000: global: Renamed reg condition_code[1] to physical reg 4750 (4750) old mapping was 4748 (4748)
  66000: system.cpu.rename: [tid:0] Renaming arch reg 1 (condition_code) to physical reg 24 (4750).
  66000: system.cpu.rename: [tid:0] [sn:30] Adding instruction to history buffer (size=69).
  66000: system.cpu.rename: [tid:0] Renaming arch reg 0 (invalid) to physical reg 4294967295 (4294967295).
  66000: system.cpu.rename: [tid:0] [sn:30] Adding instruction to history buffer (size=70).
  66000: system.cpu.rename: [tid:0] Renaming arch reg 0 (invalid) to physical reg 4294967295 (4294967295).
  66000: system.cpu.rename: [tid:0] [sn:30] Adding instruction to history buffer (size=71).
  66000: system.cpu.rename: [tid:0] Renaming arch reg 0 (invalid) to physical reg 4294967295 (4294967295).
  66000: system.cpu.rename: [tid:0] [sn:30] Adding instruction to history buffer (size=72).
dependGraph[0]: No producer. consumer: 
dependGraph[1]: No producer. consumer: 
dependGraph[2]: No producer. consumer: 
dependGraph[3]: No producer. consumer: 
dependGraph[4]: No producer. consumer: 
dependGraph[5]: No producer. consumer: 
dependGraph[6]: No producer. consumer: 
dependGraph[7]: No producer. consumer: 
dependGraph[8]: No producer. consumer: 
dependGraph[9]: No producer. consumer: 
dependGraph[10]: No producer. consumer: 
dependGraph[11]: No producer. consumer: 
dependGraph[12]: No producer. consumer: 
dependGraph[13]: No producer. consumer: 
dependGraph[14]: No producer. consumer: 
dependGraph[15]: No producer. consumer: 
dependGraph[16]: No producer. consumer: 
dependGraph[17]: No producer. consumer: 
dependGraph[18]: No producer. consumer: 
dependGraph[19]: No producer. consumer: 
dependGraph[20]: No producer. consumer: 
dependGraph[21]: No producer. consumer: 
dependGraph[22]: No producer. consumer: 
dependGraph[23]: No producer. consumer: 
dependGraph[24]: No producer. consumer: 
dependGraph[25]: No producer. consumer: 
dependGraph[26]: No producer. consumer: 
dependGraph[27]: No producer. consumer: 
dependGraph[28]: No producer. consumer: 
dependGraph[29]: No producer. consumer: 
dependGraph[30]: No producer. consumer: 
dependGraph[31]: No producer. consumer: 
dependGraph[32]: No producer. consumer: 
dependGraph[33]: No producer. consumer: 
dependGraph[34]: No producer. consumer: 
dependGraph[35]: No producer. consumer: 
dependGraph[36]: No producer. consumer: 
dependGraph[37]: No producer. consumer: 
dependGraph[38]: No producer. consumer: 
dependGraph[39]: producer: (0x401000=>0x401004).(0=>1) [sn:1] consumer: (0x401000=>0x401004).(1=>2) [sn:2] 
dependGraph[40]: producer: (0x401000=>0x401004).(1=>2) [sn:2] consumer: (0x40100b=>0x40100e).(0=>1) [sn:5] (0x401004=>0x40100b).(1=>2) [sn:4] 
dependGraph[41]: producer: (0x401004=>0x40100b).(0=>1) [sn:3] consumer: (0x401004=>0x40100b).(1=>2) [sn:4] 
dependGraph[42]: No producer. consumer: 
dependGraph[43]: No producer. consumer: 
dependGraph[44]: No producer. consumer: 
dependGraph[45]: No producer. consumer: 
dependGraph[46]: No producer. consumer: 
dependGraph[47]: No producer. consumer: 
dependGraph[48]: No producer. consumer: 
dependGraph[49]: No producer. consumer: 
dependGraph[50]: No producer. consumer: 
dependGraph[51]: No producer. consumer: 
dependGraph[52]: No producer. consumer: 
dependGraph[53]: No producer. consumer: 
dependGraph[54]: No producer. consumer: 
dependGraph[55]: No producer. consumer: 
dependGraph[56]: No producer. consumer: 
dependGraph[57]: No producer. consumer: 
dependGraph[58]: No producer. consumer: 
dependGraph[59]: No producer. consumer: 
dependGraph[60]: No producer. consumer: 
dependGraph[61]: No producer. consumer: 
dependGraph[62]: No producer. consumer: 
dependGraph[63]: No producer. consumer: 
dependGraph[64]: No producer. consumer: 
dependGraph[65]: No producer. consumer: 
dependGraph[66]: No producer. consumer: 
dependGraph[67]: No producer. consumer: 
dependGraph[68]: No producer. consumer: 
dependGraph[69]: No producer. consumer: 
dependGraph[70]: No producer. consumer: 
dependGraph[71]: No producer. consumer: 
dependGraph[72]: No producer. consumer: 
dependGraph[73]: No producer. consumer: 
dependGraph[74]: No producer. consumer: 
dependGraph[75]: No producer. consumer: 
dependGraph[76]: No producer. consumer: 
dependGraph[77]: No producer. consumer: 
dependGraph[78]: No producer. consumer: 
dependGraph[79]: No producer. consumer: 
dependGraph[80]: No producer. consumer: 
dependGraph[81]: No producer. consumer: 
dependGraph[82]: No producer. consumer: 
dependGraph[83]: No producer. consumer: 
dependGraph[84]: No producer. consumer: 
dependGraph[85]: No producer. consumer: 
dependGraph[86]: No producer. consumer: 
dependGraph[87]: No producer. consumer: 
dependGraph[88]: No producer. consumer: 
dependGraph[89]: No producer. consumer: 
dependGraph[90]: No producer. consumer: 
dependGraph[91]: No producer. consumer: 
dependGraph[92]: No producer. consumer: 
dependGraph[93]: No producer. consumer: 
dependGraph[94]: No producer. consumer: 
dependGraph[95]: No producer. consumer: 
dependGraph[96]: No producer. consumer: 
dependGraph[97]: No producer. consumer: 
dependGraph[98]: No producer. consumer: 
dependGraph[99]: No producer. consumer: 
dependGraph[100]: No producer. consumer: 
dependGraph[101]: No producer. consumer: 
dependGraph[102]: No producer. consumer: 
dependGraph[103]: No producer. consumer: 
dependGraph[104]: No producer. consumer: 
dependGraph[105]: No producer. consumer: 
dependGraph[106]: No producer. consumer: 
dependGraph[107]: No producer. consumer: 
dependGraph[108]: No producer. consumer: 
dependGraph[109]: No producer. consumer: 
dependGraph[110]: No producer. consumer: 
dependGraph[111]: No producer. consumer: 
dependGraph[112]: No producer. consumer: 
dependGraph[113]: No producer. consumer: 
dependGraph[114]: No producer. consumer: 
dependGraph[115]: No producer. consumer: 
dependGraph[116]: No producer. consumer: 
dependGraph[117]: No producer. consumer: 
dependGraph[118]: No producer. consumer: 
dependGraph[119]: No producer. consumer: 
dependGraph[120]: No producer. consumer: 
dependGraph[121]: No producer. consumer: 
dependGraph[122]: No producer. consumer: 
dependGraph[123]: No producer. consumer: 
dependGraph[124]: No producer. consumer: 
dependGraph[125]: No producer. consumer: 
dependGraph[126]: No producer. consumer: 
dependGraph[127]: No producer. consumer: 
dependGraph[128]: No producer. consumer: 
dependGraph[129]: No producer. consumer: 
dependGraph[130]: No producer. consumer: 
dependGraph[131]: No producer. consumer: 
dependGraph[132]: No producer. consumer: 
dependGraph[133]: No producer. consumer: 
dependGraph[134]: No producer. consumer: 
dependGraph[135]: No producer. consumer: 
dependGraph[136]: No producer. consumer: 
dependGraph[137]: No producer. consumer: 
dependGraph[138]: No producer. consumer: 
dependGraph[139]: No producer. consumer: 
dependGraph[140]: No producer. consumer: 
dependGraph[141]: No producer. consumer: 
dependGraph[142]: No producer. consumer: 
dependGraph[143]: No producer. consumer: 
dependGraph[144]: No producer. consumer: 
dependGraph[145]: No producer. consumer: 
dependGraph[146]: No producer. consumer: 
dependGraph[147]: No producer. consumer: 
dependGraph[148]: No producer. consumer: 
dependGraph[149]: No producer. consumer: 
dependGraph[150]: No producer. consumer: 
dependGraph[151]: No producer. consumer: 
dependGraph[152]: No producer. consumer: 
dependGraph[153]: No producer. consumer: 
dependGraph[154]: No producer. consumer: 
dependGraph[155]: No producer. consumer: 
dependGraph[156]: No producer. consumer: 
dependGraph[157]: No producer. consumer: 
dependGraph[158]: No producer. consumer: 
dependGraph[159]: No producer. consumer: 
dependGraph[160]: No producer. consumer: 
dependGraph[161]: No producer. consumer: 
dependGraph[162]: No producer. consumer: 
dependGraph[163]: No producer. consumer: 
dependGraph[164]: No producer. consumer: 
dependGraph[165]: No producer. consumer: 
dependGraph[166]: No producer. consumer: 
dependGraph[167]: No producer. consumer: 
dependGraph[168]: No producer. consumer: 
dependGraph[169]: No producer. consumer: 
dependGraph[170]: No producer. consumer: 
dependGraph[171]: No producer. consumer: 
dependGraph[172]: No producer. consumer: 
dependGraph[173]: No producer. consumer: 
dependGraph[174]: No producer. consumer: 
dependGraph[175]: No producer. consumer: 
dependGraph[176]: No producer. consumer: 
dependGraph[177]: No producer. consumer: 
dependGraph[178]: No producer. consumer: 
dependGraph[179]: No producer. consumer: 
dependGraph[180]: No producer. consumer: 
dependGraph[181]: No producer. consumer: 
dependGraph[182]: No producer. consumer: 
dependGraph[183]: No producer. consumer: 
dependGraph[184]: No producer. consumer: 
dependGraph[185]: No producer. consumer: 
dependGraph[186]: No producer. consumer: 
dependGraph[187]: No producer. consumer: 
dependGraph[188]: No producer. consumer: 
dependGraph[189]: No producer. consumer: 
dependGraph[190]: No producer. consumer: 
dependGraph[191]: No producer. consumer: 
dependGraph[192]: No producer. consumer: 
dependGraph[193]: No producer. consumer: 
dependGraph[194]: No producer. consumer: 
dependGraph[195]: No producer. consumer: 
dependGraph[196]: No producer. consumer: 
dependGraph[197]: No producer. consumer: 
dependGraph[198]: No producer. consumer: 
dependGraph[199]: No producer. consumer: 
dependGraph[200]: No producer. consumer: 
dependGraph[201]: No producer. consumer: 
dependGraph[202]: No producer. consumer: 
dependGraph[203]: No producer. consumer: 
dependGraph[204]: No producer. consumer: 
dependGraph[205]: No producer. consumer: 
dependGraph[206]: No producer. consumer: 
dependGraph[207]: No producer. consumer: 
dependGraph[208]: No producer. consumer: 
dependGraph[209]: No producer. consumer: 
dependGraph[210]: No producer. consumer: 
dependGraph[211]: No producer. consumer: 
dependGraph[212]: No producer. consumer: 
dependGraph[213]: No producer. consumer: 
dependGraph[214]: No producer. consumer: 
dependGraph[215]: No producer. consumer: 
dependGraph[216]: No producer. consumer: 
dependGraph[217]: No producer. consumer: 
dependGraph[218]: No producer. consumer: 
dependGraph[219]: No producer. consumer: 
dependGraph[220]: No producer. consumer: 
dependGraph[221]: No producer. consumer: 
dependGraph[222]: No producer. consumer: 
dependGraph[223]: No producer. consumer: 
dependGraph[224]: No producer. consumer: 
dependGraph[225]: No producer. consumer: 
dependGraph[226]: No producer. consumer: 
dependGraph[227]: No producer. consumer: 
dependGraph[228]: No producer. consumer: 
dependGraph[229]: No producer. consumer: 
dependGraph[230]: No producer. consumer: 
dependGraph[231]: No producer. consumer: 
dependGraph[232]: No producer. consumer: 
dependGraph[233]: No producer. consumer: 
dependGraph[234]: No producer. consumer: 
dependGraph[235]: No producer. consumer: 
dependGraph[236]: No producer. consumer: 
dependGraph[237]: No producer. consumer: 
dependGraph[238]: No producer. consumer: 
dependGraph[239]: No producer. consumer: 
dependGraph[240]: No producer. consumer: 
dependGraph[241]: No producer. consumer: 
dependGraph[242]: No producer. consumer: 
dependGraph[243]: No producer. consumer: 
dependGraph[244]: No producer. consumer: 
dependGraph[245]: No producer. consumer: 
dependGraph[246]: No producer. consumer: 
dependGraph[247]: No producer. consumer: 
dependGraph[248]: No producer. consumer: 
dependGraph[249]: No producer. consumer: 
dependGraph[250]: No producer. consumer: 
dependGraph[251]: No producer. consumer: 
dependGraph[252]: No producer. consumer: 
dependGraph[253]: No producer. consumer: 
dependGraph[254]: No producer. consumer: 
dependGraph[255]: No producer. consumer: 
dependGraph[256]: No producer. consumer: 
dependGraph[257]: No producer. consumer: 
dependGraph[258]: No producer. consumer: 
dependGraph[259]: No producer. consumer: 
dependGraph[260]: No producer. consumer: 
dependGraph[261]: No producer. consumer: 
dependGraph[262]: No producer. consumer: 
dependGraph[263]: No producer. consumer: 
dependGraph[264]: No producer. consumer: 
dependGraph[265]: No producer. consumer: 
dependGraph[266]: No producer. consumer: 
dependGraph[267]: No producer. consumer: 
dependGraph[268]: No producer. consumer: 
dependGraph[269]: No producer. consumer: 
dependGraph[270]: No producer. consumer: 
dependGraph[271]: No producer. consumer: 
dependGraph[272]: No producer. consumer: 
dependGraph[273]: No producer. consumer: 
dependGraph[274]: No producer. consumer: 
dependGraph[275]: No producer. consumer: 
dependGraph[276]: No producer. consumer: 
dependGraph[277]: No producer. consumer: 
dependGraph[278]: No producer. consumer: 
dependGraph[279]: No producer. consumer: 
dependGraph[280]: No producer. consumer: 
dependGraph[281]: No producer. consumer: 
dependGraph[282]: No producer. consumer: 
dependGraph[283]: No producer. consumer: 
dependGraph[284]: No producer. consumer: 
dependGraph[285]: No producer. consumer: 
dependGraph[286]: No producer. consumer: 
dependGraph[287]: No producer. consumer: 
dependGraph[288]: No producer. consumer: 
dependGraph[289]: No producer. consumer: 
dependGraph[290]: No producer. consumer: 
dependGraph[291]: No producer. consumer: 
dependGraph[292]: No producer. consumer: 
dependGraph[293]: No producer. consumer: 
dependGraph[294]: No producer. consumer: 
dependGraph[295]: No producer. consumer: 
dependGraph[296]: No producer. consumer: 
dependGraph[297]: No producer. consumer: 
dependGraph[298]: No producer. consumer: 
dependGraph[299]: No producer. consumer: 
dependGraph[300]: No producer. consumer: 
dependGraph[301]: No producer. consumer: 
dependGraph[302]: No producer. consumer: 
dependGraph[303]: No producer. consumer: 
dependGraph[304]: No producer. consumer: 
dependGraph[305]: No producer. consumer: 
dependGraph[306]: No producer. consumer: 
dependGraph[307]: No producer. consumer: 
dependGraph[308]: No producer. consumer: 
dependGraph[309]: No producer. consumer: 
dependGraph[310]: No producer. consumer: 
dependGraph[311]: No producer. consumer: 
dependGraph[312]: No producer. consumer: 
dependGraph[313]: No producer. consumer: 
dependGraph[314]: No producer. consumer: 
dependGraph[315]: No producer. consumer: 
dependGraph[316]: No producer. consumer: 
dependGraph[317]: No producer. consumer: 
dependGraph[318]: No producer. consumer: 
dependGraph[319]: No producer. consumer: 
dependGraph[320]: No producer. consumer: 
dependGraph[321]: No producer. consumer: 
dependGraph[322]: No producer. consumer: 
dependGraph[323]: No producer. consumer: 
dependGraph[324]: No producer. consumer: 
dependGraph[325]: No producer. consumer: 
dependGraph[326]: No producer. consumer: 
dependGraph[327]: No producer. consumer: 
dependGraph[328]: No producer. consumer: 
dependGraph[329]: No producer. consumer: 
dependGraph[330]: No producer. consumer: 
dependGraph[331]: No producer. consumer: 
dependGraph[332]: No producer. consumer: 
dependGraph[333]: No producer. consumer: 
dependGraph[334]: No producer. consumer: 
dependGraph[335]: No producer. consumer: 
dependGraph[336]: No producer. consumer: 
dependGraph[337]: No producer. consumer: 
dependGraph[338]: No producer. consumer: 
dependGraph[339]: No producer. consumer: 
dependGraph[340]: No producer. consumer: 
dependGraph[341]: No producer. consumer: 
dependGraph[342]: No producer. consumer: 
dependGraph[343]: No producer. consumer: 
dependGraph[344]: No producer. consumer: 
dependGraph[345]: No producer. consumer: 
dependGraph[346]: No producer. consumer: 
dependGraph[347]: No producer. consumer: 
dependGraph[348]: No producer. consumer: 
dependGraph[349]: No producer. consumer: 
dependGraph[350]: No producer. consumer: 
dependGraph[351]: No producer. consumer: 
dependGraph[352]: No producer. consumer: 
dependGraph[353]: No producer. consumer: 
dependGraph[354]: No producer. consumer: 
dependGraph[355]: No producer. consumer: 
dependGraph[356]: No producer. consumer: 
dependGraph[357]: No producer. consumer: 
dependGraph[358]: No producer. consumer: 
dependGraph[359]: No producer. consumer: 
dependGraph[360]: No producer. consumer: 
dependGraph[361]: No producer. consumer: 
dependGraph[362]: No producer. consumer: 
dependGraph[363]: No producer. consumer: 
dependGraph[364]: No producer. consumer: 
dependGraph[365]: No producer. consumer: 
dependGraph[366]: No producer. consumer: 
dependGraph[367]: No producer. consumer: 
dependGraph[368]: No producer. consumer: 
dependGraph[369]: No producer. consumer: 
dependGraph[370]: No producer. consumer: 
dependGraph[371]: No producer. consumer: 
dependGraph[372]: No producer. consumer: 
dependGraph[373]: No producer. consumer: 
dependGraph[374]: No producer. consumer: 
dependGraph[375]: No producer. consumer: 
dependGraph[376]: No producer. consumer: 
dependGraph[377]: No producer. consumer: 
dependGraph[378]: No producer. consumer: 
dependGraph[379]: No producer. consumer: 
dependGraph[380]: No producer. consumer: 
dependGraph[381]: No producer. consumer: 
dependGraph[382]: No producer. consumer: 
dependGraph[383]: No producer. consumer: 
dependGraph[384]: No producer. consumer: 
dependGraph[385]: No producer. consumer: 
dependGraph[386]: No producer. consumer: 
dependGraph[387]: No producer. consumer: 
dependGraph[388]: No producer. consumer: 
dependGraph[389]: No producer. consumer: 
dependGraph[390]: No producer. consumer: 
dependGraph[391]: No producer. consumer: 
dependGraph[392]: No producer. consumer: 
dependGraph[393]: No producer. consumer: 
dependGraph[394]: No producer. consumer: 
dependGraph[395]: No producer. consumer: 
dependGraph[396]: No producer. consumer: 
dependGraph[397]: No producer. consumer: 
dependGraph[398]: No producer. consumer: 
dependGraph[399]: No producer. consumer: 
dependGraph[400]: No producer. consumer: 
dependGraph[401]: No producer. consumer: 
dependGraph[402]: No producer. consumer: 
dependGraph[403]: No producer. consumer: 
dependGraph[404]: No producer. consumer: 
dependGraph[405]: No producer. consumer: 
dependGraph[406]: No producer. consumer: 
dependGraph[407]: No producer. consumer: 
dependGraph[408]: No producer. consumer: 
dependGraph[409]: No producer. consumer: 
dependGraph[410]: No producer. consumer: 
dependGraph[411]: No producer. consumer: 
dependGraph[412]: No producer. consumer: 
dependGraph[413]: No producer. consumer: 
dependGraph[414]: No producer. consumer: 
dependGraph[415]: No producer. consumer: 
dependGraph[416]: No producer. consumer: 
dependGraph[417]: No producer. consumer: 
dependGraph[418]: No producer. consumer: 
dependGraph[419]: No producer. consumer: 
dependGraph[420]: No producer. consumer: 
dependGraph[421]: No producer. consumer: 
dependGraph[422]: No producer. consumer: 
dependGraph[423]: No producer. consumer: 
dependGraph[424]: No producer. consumer: 
dependGraph[425]: No producer. consumer: 
dependGraph[426]: No producer. consumer: 
dependGraph[427]: No producer. consumer: 
dependGraph[428]: No producer. consumer: 
dependGraph[429]: No producer. consumer: 
dependGraph[430]: No producer. consumer: 
dependGraph[431]: No producer. consumer: 
dependGraph[432]: No producer. consumer: 
dependGraph[433]: No producer. consumer: 
dependGraph[434]: No producer. consumer: 
dependGraph[435]: No producer. consumer: 
dependGraph[436]: No producer. consumer: 
dependGraph[437]: No producer. consumer: 
dependGraph[438]: No producer. consumer: 
dependGraph[439]: No producer. consumer: 
dependGraph[440]: No producer. consumer: 
dependGraph[441]: No producer. consumer: 
dependGraph[442]: No producer. consumer: 
dependGraph[443]: No producer. consumer: 
dependGraph[444]: No producer. consumer: 
dependGraph[445]: No producer. consumer: 
dependGraph[446]: No producer. consumer: 
dependGraph[447]: No producer. consumer: 
dependGraph[448]: No producer. consumer: 
dependGraph[449]: No producer. consumer: 
dependGraph[450]: No producer. consumer: 
dependGraph[451]: No producer. consumer: 
dependGraph[452]: No producer. consumer: 
dependGraph[453]: No producer. consumer: 
dependGraph[454]: No producer. consumer: 
dependGraph[455]: No producer. consumer: 
dependGraph[456]: No producer. consumer: 
dependGraph[457]: No producer. consumer: 
dependGraph[458]: No producer. consumer: 
dependGraph[459]: No producer. consumer: 
dependGraph[460]: No producer. consumer: 
dependGraph[461]: No producer. consumer: 
dependGraph[462]: No producer. consumer: 
dependGraph[463]: No producer. consumer: 
dependGraph[464]: No producer. consumer: 
dependGraph[465]: No producer. consumer: 
dependGraph[466]: No producer. consumer: 
dependGraph[467]: No producer. consumer: 
dependGraph[468]: No producer. consumer: 
dependGraph[469]: No producer. consumer: 
dependGraph[470]: No producer. consumer: 
dependGraph[471]: No producer. consumer: 
dependGraph[472]: No producer. consumer: 
dependGraph[473]: No producer. consumer: 
dependGraph[474]: No producer. consumer: 
dependGraph[475]: No producer. consumer: 
dependGraph[476]: No producer. consumer: 
dependGraph[477]: No producer. consumer: 
dependGraph[478]: No producer. consumer: 
dependGraph[479]: No producer. consumer: 
dependGraph[480]: No producer. consumer: 
dependGraph[481]: No producer. consumer: 
dependGraph[482]: No producer. consumer: 
dependGraph[483]: No producer. consumer: 
dependGraph[484]: No producer. consumer: 
dependGraph[485]: No producer. consumer: 
dependGraph[486]: No producer. consumer: 
dependGraph[487]: No producer. consumer: 
dependGraph[488]: No producer. consumer: 
dependGraph[489]: No producer. consumer: 
dependGraph[490]: No producer. consumer: 
dependGraph[491]: No producer. consumer: 
dependGraph[492]: No producer. consumer: 
dependGraph[493]: No producer. consumer: 
[...]
dependGraph[8852]: No producer. consumer: 
dependGraph[8853]: No producer. consumer: 
dependGraph[8854]: No producer. consumer: 
dependGraph[8855]: No producer. consumer: 
dependGraph[8856]: No producer. consumer: 
dependGraph[8857]: No producer. consumer: 
dependGraph[8858]: No producer. consumer: 
dependGraph[8859]: No producer. consumer: 
dependGraph[8860]: No producer. consumer: 
dependGraph[8861]: No producer. consumer: 
dependGraph[8862]: No producer. consumer: 
dependGraph[8863]: No producer. consumer: 
dependGraph[8864]: No producer. consumer: 
dependGraph[8865]: No producer. consumer: 
dependGraph[8866]: No producer. consumer: 
dependGraph[8867]: No producer. consumer: 
dependGraph[8868]: No producer. consumer: 
dependGraph[8869]: No producer. consumer: 
dependGraph[8870]: No producer. consumer: 
dependGraph[8871]: No producer. consumer: 
dependGraph[8872]: No producer. consumer: 
dependGraph[8873]: No producer. consumer: 
dependGraph[8874]: No producer. consumer: 
dependGraph[8875]: No producer. consumer: 
dependGraph[8876]: No producer. consumer: 
dependGraph[8877]: No producer. consumer: 
dependGraph[8878]: No producer. consumer: 
dependGraph[8879]: No producer. consumer: 
dependGraph[8880]: No producer. consumer: 
dependGraph[8881]: No producer. consumer: 
dependGraph[8882]: No producer. consumer: 
dependGraph[8883]: No producer. consumer: 
dependGraph[8884]: No producer. consumer: 
dependGraph[8885]: No producer. consumer: 
dependGraph[8886]: No producer. consumer: 
dependGraph[8887]: No producer. consumer: 
dependGraph[8888]: No producer. consumer: 
dependGraph[8889]: No producer. consumer: 
dependGraph[8890]: No producer. consumer: 
dependGraph[8891]: No producer. consumer: 
dependGraph[8892]: No producer. consumer: 
dependGraph[8893]: No producer. consumer: 
dependGraph[8894]: No producer. consumer: 
dependGraph[8895]: No producer. consumer: 
dependGraph[8896]: No producer. consumer: 
dependGraph[8897]: No producer. consumer: 
dependGraph[8898]: No producer. consumer: 
dependGraph[8899]: No producer. consumer: 
dependGraph[8900]: No producer. consumer: 
dependGraph[8901]: No producer. consumer: 
dependGraph[8902]: No producer. consumer: 
dependGraph[8903]: No producer. consumer: 
dependGraph[8904]: No producer. consumer: 
dependGraph[8905]: No producer. consumer: 
dependGraph[8906]: No producer. consumer: 
dependGraph[8907]: No producer. consumer: 
dependGraph[8908]: No producer. consumer: 
dependGraph[8909]: No producer. consumer: 
dependGraph[8910]: No producer. consumer: 
dependGraph[8911]: No producer. consumer: 
dependGraph[8912]: No producer. consumer: 
dependGraph[8913]: No producer. consumer: 
dependGraph[8914]: No producer. consumer: 
dependGraph[8915]: No producer. consumer: 
dependGraph[8916]: No producer. consumer: 
dependGraph[8917]: No producer. consumer: 
dependGraph[8918]: No producer. consumer: 
dependGraph[8919]: No producer. consumer: 
dependGraph[8920]: No producer. consumer: 
dependGraph[8921]: No producer. consumer: 
dependGraph[8922]: No producer. consumer: 
dependGraph[8923]: No producer. consumer: 
dependGraph[8924]: No producer. consumer: 
dependGraph[8925]: No producer. consumer: 
dependGraph[8926]: No producer. consumer: 
dependGraph[8927]: No producer. consumer: 
dependGraph[8928]: No producer. consumer: 
dependGraph[8929]: No producer. consumer: 
dependGraph[8930]: No producer. consumer: 
dependGraph[8931]: No producer. consumer: 
dependGraph[8932]: No producer. consumer: 
dependGraph[8933]: No producer. consumer: 
dependGraph[8934]: No producer. consumer: 
dependGraph[8935]: No producer. consumer: 
dependGraph[8936]: No producer. consumer: 
dependGraph[8937]: No producer. consumer: 
dependGraph[8938]: No producer. consumer: 
dependGraph[8939]: No producer. consumer: 
dependGraph[8940]: No producer. consumer: 
dependGraph[8941]: No producer. consumer: 
dependGraph[8942]: No producer. consumer: 
dependGraph[8943]: No producer. consumer: 
dependGraph[8944]: No producer. consumer: 
dependGraph[8945]: No producer. consumer: 
dependGraph[8946]: No producer. consumer: 
dependGraph[8947]: No producer. consumer: 
dependGraph[8948]: No producer. consumer: 
dependGraph[8949]: No producer. consumer: 
dependGraph[8950]: No producer. consumer: 
dependGraph[8951]: No producer. consumer: 
dependGraph[8952]: No producer. consumer: 
dependGraph[8953]: No producer. consumer: 
dependGraph[8954]: No producer. consumer: 
dependGraph[8955]: No producer. consumer: 
dependGraph[8956]: No producer. consumer: 
dependGraph[8957]: No producer. consumer: 
dependGraph[8958]: No producer. consumer: 
dependGraph[8959]: No producer. consumer: 
dependGraph[8960]: No producer. consumer: 
dependGraph[8961]: No producer. consumer: 
dependGraph[8962]: No producer. consumer: 
dependGraph[8963]: No producer. consumer: 
dependGraph[8964]: No producer. consumer: 
dependGraph[8965]: No producer. consumer: 
dependGraph[8966]: No producer. consumer: 
dependGraph[8967]: No producer. consumer: 
dependGraph[8968]: No producer. consumer: 
dependGraph[8969]: No producer. consumer: 
dependGraph[8970]: No producer. consumer: 
dependGraph[8971]: No producer. consumer: 
dependGraph[8972]: No producer. consumer: 
dependGraph[8973]: No producer. consumer: 
dependGraph[8974]: No producer. consumer: 
dependGraph[8975]: No producer. consumer: 
dependGraph[8976]: No producer. consumer: 
dependGraph[8977]: No producer. consumer: 
dependGraph[8978]: No producer. consumer: 
dependGraph[8979]: No producer. consumer: 
dependGraph[8980]: No producer. consumer: 
dependGraph[8981]: No producer. consumer: 
dependGraph[8982]: No producer. consumer: 
dependGraph[8983]: No producer. consumer: 
dependGraph[8984]: No producer. consumer: 
dependGraph[8985]: No producer. consumer: 
dependGraph[8986]: No producer. consumer: 
dependGraph[8987]: No producer. consumer: 
dependGraph[8988]: No producer. consumer: 
dependGraph[8989]: No producer. consumer: 
dependGraph[8990]: No producer. consumer: 
dependGraph[8991]: No producer. consumer: 
dependGraph[8992]: No producer. consumer: 
dependGraph[8993]: No producer. consumer: 
dependGraph[8994]: No producer. consumer: 
dependGraph[8995]: No producer. consumer: 
dependGraph[8996]: No producer. consumer: 
dependGraph[8997]: No producer. consumer: 
dependGraph[8998]: No producer. consumer: 
dependGraph[8999]: No producer. consumer: 
dependGraph[9000]: No producer. consumer: 
dependGraph[9001]: No producer. consumer: 
dependGraph[9002]: No producer. consumer: 
dependGraph[9003]: No producer. consumer: 
dependGraph[9004]: No producer. consumer: 
dependGraph[9005]: No producer. consumer: 
dependGraph[9006]: No producer. consumer: 
dependGraph[9007]: No producer. consumer: 
dependGraph[9008]: No producer. consumer: 
dependGraph[9009]: No producer. consumer: 
dependGraph[9010]: No producer. consumer: 
dependGraph[9011]: No producer. consumer: 
dependGraph[9012]: No producer. consumer: 
dependGraph[9013]: No producer. consumer: 
dependGraph[9014]: No producer. consumer: 
dependGraph[9015]: No producer. consumer: 
dependGraph[9016]: No producer. consumer: 
dependGraph[9017]: No producer. consumer: 
dependGraph[9018]: No producer. consumer: 
dependGraph[9019]: No producer. consumer: 
dependGraph[9020]: No producer. consumer: 
dependGraph[9021]: No producer. consumer: 
dependGraph[9022]: No producer. consumer: 
dependGraph[9023]: No producer. consumer: 
dependGraph[9024]: No producer. consumer: 
dependGraph[9025]: No producer. consumer: 
dependGraph[9026]: No producer. consumer: 
dependGraph[9027]: No producer. consumer: 
dependGraph[9028]: No producer. consumer: 
dependGraph[9029]: No producer. consumer: 
dependGraph[9030]: No producer. consumer: 
dependGraph[9031]: No producer. consumer: 
dependGraph[9032]: No producer. consumer: 
dependGraph[9033]: No producer. consumer: 
dependGraph[9034]: No producer. consumer: 
dependGraph[9035]: No producer. consumer: 
dependGraph[9036]: No producer. consumer: 
dependGraph[9037]: No producer. consumer: 
dependGraph[9038]: No producer. consumer: 
dependGraph[9039]: No producer. consumer: 
dependGraph[9040]: No producer. consumer: 
dependGraph[9041]: No producer. consumer: 
dependGraph[9042]: No producer. consumer: 
dependGraph[9043]: No producer. consumer: 
dependGraph[9044]: No producer. consumer: 
dependGraph[9045]: No producer. consumer: 
dependGraph[9046]: No producer. consumer: 
dependGraph[9047]: No producer. consumer: 
dependGraph[9048]: No producer. consumer: 
dependGraph[9049]: No producer. consumer: 
dependGraph[9050]: No producer. consumer: 
dependGraph[9051]: No producer. consumer: 
dependGraph[9052]: No producer. consumer: 
dependGraph[9053]: No producer. consumer: 
dependGraph[9054]: No producer. consumer: 
dependGraph[9055]: No producer. consumer: 
dependGraph[9056]: No producer. consumer: 
dependGraph[9057]: No producer. consumer: 
dependGraph[9058]: No producer. consumer: 
dependGraph[9059]: No producer. consumer: 
dependGraph[9060]: No producer. consumer: 
dependGraph[9061]: No producer. consumer: 
dependGraph[9062]: No producer. consumer: 
dependGraph[9063]: No producer. consumer: 
dependGraph[9064]: No producer. consumer: 
dependGraph[9065]: No producer. consumer: 
dependGraph[9066]: No producer. consumer: 
dependGraph[9067]: No producer. consumer: 
dependGraph[9068]: No producer. consumer: 
dependGraph[9069]: No producer. consumer: 
dependGraph[9070]: No producer. consumer: 
dependGraph[9071]: No producer. consumer: 
dependGraph[9072]: No producer. consumer: 
dependGraph[9073]: No producer. consumer: 
dependGraph[9074]: No producer. consumer: 
dependGraph[9075]: No producer. consumer: 
dependGraph[9076]: No producer. consumer: 
dependGraph[9077]: No producer. consumer: 
dependGraph[9078]: No producer. consumer: 
dependGraph[9079]: No producer. consumer: 
dependGraph[9080]: No producer. consumer: 
dependGraph[9081]: No producer. consumer: 
dependGraph[9082]: No producer. consumer: 
dependGraph[9083]: No producer. consumer: 
dependGraph[9084]: No producer. consumer: 
dependGraph[9085]: No producer. consumer: 
dependGraph[9086]: No producer. consumer: 
dependGraph[9087]: No producer. consumer: 
dependGraph[9088]: No producer. consumer: 
dependGraph[9089]: No producer. consumer: 
dependGraph[9090]: No producer. consumer: 
dependGraph[9091]: No producer. consumer: 
dependGraph[9092]: No producer. consumer: 
dependGraph[9093]: No producer. consumer: 
dependGraph[9094]: No producer. consumer: 
dependGraph[9095]: No producer. consumer: 
dependGraph[9096]: No producer. consumer: 
dependGraph[9097]: No producer. consumer: 
dependGraph[9098]: No producer. consumer: 
dependGraph[9099]: No producer. consumer: 
dependGraph[9100]: No producer. consumer: 
dependGraph[9101]: No producer. consumer: 
dependGraph[9102]: No producer. consumer: 
dependGraph[9103]: No producer. consumer: 
dependGraph[9104]: No producer. consumer: 
dependGraph[9105]: No producer. consumer: 
dependGraph[9106]: No producer. consumer: 
dependGraph[9107]: No producer. consumer: 
dependGraph[9108]: No producer. consumer: 
dependGraph[9109]: No producer. consumer: 
dependGraph[9110]: No producer. consumer: 
dependGraph[9111]: No producer. consumer: 
dependGraph[9112]: No producer. consumer: 
dependGraph[9113]: No producer. consumer: 
dependGraph[9114]: No producer. consumer: 
dependGraph[9115]: No producer. consumer: 
dependGraph[9116]: No producer. consumer: 
dependGraph[9117]: No producer. consumer: 
dependGraph[9118]: No producer. consumer: 
dependGraph[9119]: No producer. consumer: 
dependGraph[9120]: No producer. consumer: 
dependGraph[9121]: No producer. consumer: 
dependGraph[9122]: No producer. consumer: 
dependGraph[9123]: No producer. consumer: 
dependGraph[9124]: No producer. consumer: 
dependGraph[9125]: No producer. consumer: 
dependGraph[9126]: No producer. consumer: 
dependGraph[9127]: No producer. consumer: 
dependGraph[9128]: No producer. consumer: 
dependGraph[9129]: No producer. consumer: 
dependGraph[9130]: No producer. consumer: 
dependGraph[9131]: No producer. consumer: 
dependGraph[9132]: No producer. consumer: 
dependGraph[9133]: No producer. consumer: 
dependGraph[9134]: No producer. consumer: 
dependGraph[9135]: No producer. consumer: 
dependGraph[9136]: No producer. consumer: 
dependGraph[9137]: No producer. consumer: 
dependGraph[9138]: No producer. consumer: 
dependGraph[9139]: No producer. consumer: 
dependGraph[9140]: No producer. consumer: 
dependGraph[9141]: No producer. consumer: 
dependGraph[9142]: No producer. consumer: 
dependGraph[9143]: No producer. consumer: 
dependGraph[9144]: No producer. consumer: 
dependGraph[9145]: No producer. consumer: 
dependGraph[9146]: No producer. consumer: 
dependGraph[9147]: No producer. consumer: 
dependGraph[9148]: No producer. consumer: 
dependGraph[9149]: No producer. consumer: 
dependGraph[9150]: No producer. consumer: 
dependGraph[9151]: No producer. consumer: 
dependGraph[9152]: No producer. consumer: 
dependGraph[9153]: No producer. consumer: 
dependGraph[9154]: No producer. consumer: 
dependGraph[9155]: No producer. consumer: 
dependGraph[9156]: No producer. consumer: 
dependGraph[9157]: No producer. consumer: 
dependGraph[9158]: No producer. consumer: 
dependGraph[9159]: No producer. consumer: 
dependGraph[9160]: No producer. consumer: 
dependGraph[9161]: No producer. consumer: 
dependGraph[9162]: No producer. consumer: 
dependGraph[9163]: No producer. consumer: 
dependGraph[9164]: No producer. consumer: 
dependGraph[9165]: No producer. consumer: 
dependGraph[9166]: No producer. consumer: 
dependGraph[9167]: No producer. consumer: 
dependGraph[9168]: No producer. consumer: 
dependGraph[9169]: No producer. consumer: 
dependGraph[9170]: No producer. consumer: 
dependGraph[9171]: No producer. consumer: 
dependGraph[9172]: No producer. consumer: 
dependGraph[9173]: No producer. consumer: 
dependGraph[9174]: No producer. consumer: 
dependGraph[9175]: No producer. consumer: 
dependGraph[9176]: No producer. consumer: 
dependGraph[9177]: No producer. consumer: 
dependGraph[9178]: No producer. consumer: 
dependGraph[9179]: No producer. consumer: 
dependGraph[9180]: No producer. consumer: 
dependGraph[9181]: No producer. consumer: 
dependGraph[9182]: No producer. consumer: 
dependGraph[9183]: No producer. consumer: 
dependGraph[9184]: No producer. consumer: 
dependGraph[9185]: No producer. consumer: 
dependGraph[9186]: No producer. consumer: 
dependGraph[9187]: No producer. consumer: 
dependGraph[9188]: No producer. consumer: 
dependGraph[9189]: No producer. consumer: 
dependGraph[9190]: No producer. consumer: 
dependGraph[9191]: No producer. consumer: 
dependGraph[9192]: No producer. consumer: 
dependGraph[9193]: No producer. consumer: 
dependGraph[9194]: No producer. consumer: 
dependGraph[9195]: No producer. consumer: 
dependGraph[9196]: No producer. consumer: 
dependGraph[9197]: No producer. consumer: 
dependGraph[9198]: No producer. consumer: 
dependGraph[9199]: No producer. consumer: 
dependGraph[9200]: No producer. consumer: 
dependGraph[9201]: No producer. consumer: 
dependGraph[9202]: No producer. consumer: 
dependGraph[9203]: No producer. consumer: 
dependGraph[9204]: No producer. consumer: 
dependGraph[9205]: No producer. consumer: 
dependGraph[9206]: No producer. consumer: 
dependGraph[9207]: No producer. consumer: 
dependGraph[9208]: No producer. consumer: 
dependGraph[9209]: No producer. consumer: 
dependGraph[9210]: No producer. consumer: 
dependGraph[9211]: No producer. consumer: 
dependGraph[9212]: No producer. consumer: 
dependGraph[9213]: No producer. consumer: 
dependGraph[9214]: No producer. consumer: 
dependGraph[9215]: No producer. consumer: 
dependGraph[9216]: No producer. consumer: 
dependGraph[9217]: No producer. consumer: 
dependGraph[9218]: No producer. consumer: 
dependGraph[9219]: No producer. consumer: 
dependGraph[9220]: No producer. consumer: 
dependGraph[9221]: No producer. consumer: 
dependGraph[9222]: No producer. consumer: 
dependGraph[9223]: No producer. consumer: 
dependGraph[9224]: No producer. consumer: 
dependGraph[9225]: No producer. consumer: 
dependGraph[9226]: No producer. consumer: 
dependGraph[9227]: No producer. consumer: 
dependGraph[9228]: No producer. consumer: 
dependGraph[9229]: No producer. consumer: 
dependGraph[9230]: No producer. consumer: 
dependGraph[9231]: No producer. consumer: 
dependGraph[9232]: No producer. consumer: 
dependGraph[9233]: No producer. consumer: 
dependGraph[9234]: No producer. consumer: 
dependGraph[9235]: No producer. consumer: 
dependGraph[9236]: No producer. consumer: 
dependGraph[9237]: No producer. consumer: 
dependGraph[9238]: No producer. consumer: 
dependGraph[9239]: No producer. consumer: 
dependGraph[9240]: No producer. consumer: 
dependGraph[9241]: No producer. consumer: 
dependGraph[9242]: No producer. consumer: 
dependGraph[9243]: No producer. consumer: 
dependGraph[9244]: No producer. consumer: 
dependGraph[9245]: No producer. consumer: 
dependGraph[9246]: No producer. consumer: 
dependGraph[9247]: No producer. consumer: 
dependGraph[9248]: No producer. consumer: 
dependGraph[9249]: No producer. consumer: 
dependGraph[9250]: No producer. consumer: 
dependGraph[9251]: No producer. consumer: 
dependGraph[9252]: No producer. consumer: 
dependGraph[9253]: No producer. consumer: 
dependGraph[9254]: No producer. consumer: 
dependGraph[9255]: No producer. consumer: 
dependGraph[9256]: No producer. consumer: 
dependGraph[9257]: No producer. consumer: 
dependGraph[9258]: No producer. consumer: 
dependGraph[9259]: No producer. consumer: 
dependGraph[9260]: No producer. consumer: 
dependGraph[9261]: No producer. consumer: 
dependGraph[9262]: No producer. consumer: 
dependGraph[9263]: No producer. consumer: 
dependGraph[9264]: No producer. consumer: 
dependGraph[9265]: No producer. consumer: 
dependGraph[9266]: No producer. consumer: 
dependGraph[9267]: No producer. consumer: 
dependGraph[9268]: No producer. consumer: 
dependGraph[9269]: No producer. consumer: 
dependGraph[9270]: No producer. consumer: 
dependGraph[9271]: No producer. consumer: 
dependGraph[9272]: No producer. consumer: 
dependGraph[9273]: No producer. consumer: 
dependGraph[9274]: No producer. consumer: 
dependGraph[9275]: No producer. consumer: 
dependGraph[9276]: No producer. consumer: 
dependGraph[9277]: No producer. consumer: 
dependGraph[9278]: No producer. consumer: 
dependGraph[9279]: No producer. consumer: 
dependGraph[9280]: No producer. consumer: 
dependGraph[9281]: No producer. consumer: 
dependGraph[9282]: No producer. consumer: 
dependGraph[9283]: No producer. consumer: 
dependGraph[9284]: No producer. consumer: 
dependGraph[9285]: No producer. consumer: 
dependGraph[9286]: No producer. consumer: 
dependGraph[9287]: No producer. consumer: 
dependGraph[9288]: No producer. consumer: 
dependGraph[9289]: No producer. consumer: 
dependGraph[9290]: No producer. consumer: 
dependGraph[9291]: No producer. consumer: 
dependGraph[9292]: No producer. consumer: 
dependGraph[9293]: No producer. consumer: 
dependGraph[9294]: No producer. consumer: 
dependGraph[9295]: No producer. consumer: 
dependGraph[9296]: No producer. consumer: 
dependGraph[9297]: No producer. consumer: 
dependGraph[9298]: No producer. consumer: 
dependGraph[9299]: No producer. consumer: 
dependGraph[9300]: No producer. consumer: 
dependGraph[9301]: No producer. consumer: 
dependGraph[9302]: No producer. consumer: 
dependGraph[9303]: No producer. consumer: 
dependGraph[9304]: No producer. consumer: 
dependGraph[9305]: No producer. consumer: 
dependGraph[9306]: No producer. consumer: 
dependGraph[9307]: No producer. consumer: 
dependGraph[9308]: No producer. consumer: 
dependGraph[9309]: No producer. consumer: 
dependGraph[9310]: No producer. consumer: 
dependGraph[9311]: No producer. consumer: 
dependGraph[9312]: No producer. consumer: 
dependGraph[9313]: No producer. consumer: 
dependGraph[9314]: No producer. consumer: 
dependGraph[9315]: No producer. consumer: 
memAllocCounter: 4
