warn: The se.py script is deprecated. It will be removed in future releases of  gem5.
Global frequency set at 1000000000000 ticks per second
warn: No dot file generated. Please install pydot to generate the dot file and pdf.
src/arch/x86/linux/se_workload.cc:76: warn: Unknown operating system; assuming Linux.
src/base/statistics.hh:279: warn: One of the stats is a legacy stat. Legacy stat is a stat that does not belong to any statistics::Group. Legacy stat is deprecated.
      0: system.cpu.iq: IQ sharing policy set to Partitioned:559 entries per thread.
      0: system.cpu.iew.lsq.thread0: Creating LSQUnit0 object.
system.remote_gdb: Listening for connections on port 7006
      0: global: RegFile: Setting int register 4 to 0x7fffffffee60
      0: system.cpu.commit: Generating TC squash event for [tid:0]
      0: system.cpu.iew.lsq.thread0: LQ size: 132, #loads occupied: 0
      0: system.cpu.iew.lsq.thread0: SQ size: 72, #stores occupied: 0
      0: system.cpu.iew.lsq.thread0: LQ size: 132, #loads occupied: 0
      0: system.cpu.iew.lsq.thread0: SQ size: 72, #stores occupied: 0
gem5 Simulator System.  https://www.gem5.org
gem5 is copyrighted software; use the --copyright option for details.

gem5 version 24.0.0.1
gem5 compiled Apr  6 2026 17:08:27
gem5 started Apr  6 2026 17:09:36
gem5 executing on spectral, pid 2761005
command line: ./build/X86/gem5.opt --debug-flags=IEW,LSQ,LSQUnit,Rename,Exec,IQ,Commit configs/deprecated/example/se.py --cmd=./my-progs/exit -n 1 --mem-type SimpleMemory --caches --l2cache --cpu-type DerivO3CPU --maxinsts=1000000

**** REAL SIMULATION ****
src/sim/simulate.cc:199: info: Entering event queue @ 0.  Starting simulation...
      0: system.cpu.rename: Processing [tid:0]
      0: system.cpu.rename: [tid:0] Free IQ: 559, Free ROB: 918, Free LQ: 132, Free SQ: 72, FreeRM 127(879 870 917 1834 127 8 4585)
      0: system.cpu.rename: [tid:0] 0 instructions not yet in ROB
      0: system.cpu.rename: calcFreeLQEntries: free lqEntries: 132, loadsInProgress: 0, loads dispatchedToLQ: 0
      0: system.cpu.rename: [tid:0] Not blocked, so attempting to run stage.
      0: system.cpu.rename: [tid:0] Nothing to do, breaking out early.
      0: system.cpu.iew: Issue: Processing [tid:0]
      0: system.cpu.iew: [tid:0] Not blocked, so attempting to run dispatch.
      0: system.cpu.iq: Attempting to schedule ready instructions from the IQ.
      0: system.cpu.iq: Not able to schedule any instructions.
      0: system.cpu.iew: Processing [tid:0]
      0: system.cpu.iew.lsq.thread0: LQ size: 132, #loads occupied: 0
      0: system.cpu.iew.lsq.thread0: SQ size: 72, #stores occupied: 0
      0: system.cpu.iew: [tid:0], Dispatch dispatched 0 instructions.
      0: system.cpu.iew.lsq.thread0: SQ size: 72, #stores occupied: 0
      0: system.cpu.iew.lsq.thread0: LQ size: 132, #loads occupied: 0
      0: system.cpu.iew: IQ has 559 free entries (Can schedule: 0).  LQ has 132 free entries. SQ has 72 free entries.
      0: system.cpu.iew: IEW switching to idle
      0: system.cpu.commit: Squashing from TC, restarting at PC (0x401000=>0x401008).(0=>1)
      0: system.cpu.commit: [tid:0] ROB has 0 insts & 918 free entries.
    500: system.cpu.rename: Processing [tid:0]
    500: system.cpu.rename: [tid:0] Free IQ: 559, Free ROB: 918, Free LQ: 132, Free SQ: 72, FreeRM 127(879 870 917 1834 127 8 4585)
    500: system.cpu.rename: [tid:0] 0 instructions not yet in ROB
    500: system.cpu.rename: [tid:0] Squashing instructions due to squash from commit.
    500: system.cpu.rename: [tid:0] [squash sn:0] Squashing instructions.
    500: system.cpu.iew: Issue: Processing [tid:0]
    500: system.cpu.iew: [tid:0] Squashing all instructions.
    500: system.cpu.iq: [tid:0] Starting to squash instructions in the IQ.
    500: system.cpu.iq: [tid:0] Squashing until sequence number 0!
    500: system.cpu.iew.lsq.thread0: Squashing until [sn:0]!(Loads:0 Stores:0)
    500: system.cpu.iew: Removing skidbuffer instructions until [sn:0] [tid:0]
    500: system.cpu.iew: [tid:0] Removing incoming rename instructions
    500: system.cpu.iq: Attempting to schedule ready instructions from the IQ.
    500: system.cpu.iq: Not able to schedule any instructions.
    500: system.cpu.iew: Processing [tid:0]
    500: system.cpu.iew.lsq.thread0: LQ size: 132, #loads occupied: 0
    500: system.cpu.iew.lsq.thread0: SQ size: 72, #stores occupied: 0
    500: system.cpu.iew: [tid:0], Dispatch dispatched 0 instructions.
    500: system.cpu.iew.lsq.thread0: SQ size: 72, #stores occupied: 0
    500: system.cpu.iew.lsq.thread0: LQ size: 132, #loads occupied: 0
    500: system.cpu.iew: IQ has 559 free entries (Can schedule: 0).  LQ has 132 free entries. SQ has 72 free entries.
    500: system.cpu.commit: Getting instructions from Rename stage.
    500: system.cpu.commit: Trying to commit instructions in the ROB.
    500: system.cpu.commit: [tid:0] ROB has 0 insts & 918 free entries.
   1000: system.cpu.rename: Processing [tid:0]
   1000: system.cpu.rename: [tid:0] Free IQ: 559, Free ROB: 918, Free LQ: 132, Free SQ: 72, FreeRM 127(879 870 917 1834 127 8 4585)
   1000: system.cpu.rename: [tid:0] 0 instructions not yet in ROB
   1000: system.cpu.rename: calcFreeLQEntries: free lqEntries: 132, loadsInProgress: 0, loads dispatchedToLQ: 0
   1000: system.cpu.rename: [tid:0] Done squashing, switching to running.
   1000: system.cpu.rename: [tid:0] Not blocked, so attempting to run stage.
   1000: system.cpu.rename: [tid:0] Nothing to do, breaking out early.
   1000: system.cpu.iew: Issue: Processing [tid:0]
   1000: system.cpu.iew: [tid:0] Done squashing, switching to running.
   1000: system.cpu.iew: [tid:0] Not blocked, so attempting to run dispatch.
   1000: system.cpu.iq: Attempting to schedule ready instructions from the IQ.
   1000: system.cpu.iq: Not able to schedule any instructions.
   1000: system.cpu.iew: Processing [tid:0]
   1000: system.cpu.iew: [tid:0], Dispatch dispatched 0 instructions.
   1000: system.cpu.iew.lsq.thread0: SQ size: 72, #stores occupied: 0
   1000: system.cpu.iew.lsq.thread0: LQ size: 132, #loads occupied: 0
   1000: system.cpu.iew: IQ has 559 free entries (Can schedule: 0).  LQ has 132 free entries. SQ has 72 free entries.
   1000: system.cpu.commit: Getting instructions from Rename stage.
   1000: system.cpu.commit: Trying to commit instructions in the ROB.
   1000: system.cpu.commit: [tid:0] ROB has 0 insts & 918 free entries.
   1500: system.cpu.rename: Processing [tid:0]
   1500: system.cpu.rename: [tid:0] Free IQ: 559, Free ROB: 918, Free LQ: 132, Free SQ: 72, FreeRM 127(879 870 917 1834 127 8 4585)
   1500: system.cpu.rename: [tid:0] 0 instructions not yet in ROB
   1500: system.cpu.rename: calcFreeLQEntries: free lqEntries: 132, loadsInProgress: 0, loads dispatchedToLQ: 0
   1500: system.cpu.rename: [tid:0] Not blocked, so attempting to run stage.
   1500: system.cpu.rename: [tid:0] Nothing to do, breaking out early.
   1500: system.cpu.iew: Issue: Processing [tid:0]
   1500: system.cpu.iew: [tid:0] Not blocked, so attempting to run dispatch.
   1500: system.cpu.iq: Attempting to schedule ready instructions from the IQ.
   1500: system.cpu.iq: Not able to schedule any instructions.
   1500: system.cpu.iew: Processing [tid:0]
   1500: system.cpu.iew: [tid:0], Dispatch dispatched 0 instructions.
   1500: system.cpu.iew.lsq.thread0: SQ size: 72, #stores occupied: 0
   1500: system.cpu.iew.lsq.thread0: LQ size: 132, #loads occupied: 0
   1500: system.cpu.iew: IQ has 559 free entries (Can schedule: 0).  LQ has 132 free entries. SQ has 72 free entries.
   1500: system.cpu.commit: Getting instructions from Rename stage.
   1500: system.cpu.commit: Trying to commit instructions in the ROB.
   1500: system.cpu.commit: [tid:0] ROB has 0 insts & 918 free entries.
   2000: system.cpu.rename: Processing [tid:0]
   2000: system.cpu.rename: [tid:0] Free IQ: 559, Free ROB: 918, Free LQ: 132, Free SQ: 72, FreeRM 127(879 870 917 1834 127 8 4585)
   2000: system.cpu.rename: [tid:0] 0 instructions not yet in ROB
   2000: system.cpu.rename: calcFreeLQEntries: free lqEntries: 132, loadsInProgress: 0, loads dispatchedToLQ: 0
   2000: system.cpu.rename: [tid:0] Not blocked, so attempting to run stage.
   2000: system.cpu.rename: [tid:0] Nothing to do, breaking out early.
   2000: system.cpu.iew: Issue: Processing [tid:0]
   2000: system.cpu.iew: [tid:0] Not blocked, so attempting to run dispatch.
   2000: system.cpu.iq: Attempting to schedule ready instructions from the IQ.
   2000: system.cpu.iq: Not able to schedule any instructions.
   2000: system.cpu.iew: Processing [tid:0]
   2000: system.cpu.iew: [tid:0], Dispatch dispatched 0 instructions.
   2000: system.cpu.iew.lsq.thread0: SQ size: 72, #stores occupied: 0
   2000: system.cpu.iew.lsq.thread0: LQ size: 132, #loads occupied: 0
   2000: system.cpu.iew: IQ has 559 free entries (Can schedule: 0).  LQ has 132 free entries. SQ has 72 free entries.
   2000: system.cpu.commit: Getting instructions from Rename stage.
   2000: system.cpu.commit: Trying to commit instructions in the ROB.
   2000: system.cpu.commit: [tid:0] ROB has 0 insts & 918 free entries.
   2500: system.cpu.rename: Processing [tid:0]
   2500: system.cpu.rename: [tid:0] Free IQ: 559, Free ROB: 918, Free LQ: 132, Free SQ: 72, FreeRM 127(879 870 917 1834 127 8 4585)
   2500: system.cpu.rename: [tid:0] 0 instructions not yet in ROB
   2500: system.cpu.rename: calcFreeLQEntries: free lqEntries: 132, loadsInProgress: 0, loads dispatchedToLQ: 0
   2500: system.cpu.rename: [tid:0] Not blocked, so attempting to run stage.
   2500: system.cpu.rename: [tid:0] Nothing to do, breaking out early.
   2500: system.cpu.iew: Issue: Processing [tid:0]
   2500: system.cpu.iew: [tid:0] Not blocked, so attempting to run dispatch.
   2500: system.cpu.iq: Attempting to schedule ready instructions from the IQ.
   2500: system.cpu.iq: Not able to schedule any instructions.
   2500: system.cpu.iew: Processing [tid:0]
   2500: system.cpu.iew: [tid:0], Dispatch dispatched 0 instructions.
   2500: system.cpu.iew.lsq.thread0: SQ size: 72, #stores occupied: 0
   2500: system.cpu.iew.lsq.thread0: LQ size: 132, #loads occupied: 0
   2500: system.cpu.iew: IQ has 559 free entries (Can schedule: 0).  LQ has 132 free entries. SQ has 72 free entries.
   2500: system.cpu.commit: Getting instructions from Rename stage.
   2500: system.cpu.commit: Trying to commit instructions in the ROB.
   2500: system.cpu.commit: [tid:0] ROB has 0 insts & 918 free entries.
   3000: system.cpu.rename: Processing [tid:0]
   3000: system.cpu.rename: [tid:0] Free IQ: 559, Free ROB: 918, Free LQ: 132, Free SQ: 72, FreeRM 127(879 870 917 1834 127 8 4585)
   3000: system.cpu.rename: [tid:0] 0 instructions not yet in ROB
   3000: system.cpu.rename: calcFreeLQEntries: free lqEntries: 132, loadsInProgress: 0, loads dispatchedToLQ: 0
   3000: system.cpu.rename: [tid:0] Not blocked, so attempting to run stage.
   3000: system.cpu.rename: [tid:0] Nothing to do, breaking out early.
   3000: system.cpu.iew: Issue: Processing [tid:0]
   3000: system.cpu.iew: [tid:0] Not blocked, so attempting to run dispatch.
   3000: system.cpu.iq: Attempting to schedule ready instructions from the IQ.
   3000: system.cpu.iq: Not able to schedule any instructions.
   3000: system.cpu.iew: Processing [tid:0]
   3000: system.cpu.iew: [tid:0], Dispatch dispatched 0 instructions.
   3000: system.cpu.iew.lsq.thread0: SQ size: 72, #stores occupied: 0
   3000: system.cpu.iew.lsq.thread0: LQ size: 132, #loads occupied: 0
   3000: system.cpu.iew: IQ has 559 free entries (Can schedule: 0).  LQ has 132 free entries. SQ has 72 free entries.
   3000: system.cpu.commit: Getting instructions from Rename stage.
   3000: system.cpu.commit: Trying to commit instructions in the ROB.
   3000: system.cpu.commit: [tid:0] ROB has 0 insts & 918 free entries.
   3500: system.cpu.rename: Processing [tid:0]
   3500: system.cpu.rename: [tid:0] Free IQ: 559, Free ROB: 918, Free LQ: 132, Free SQ: 72, FreeRM 127(879 870 917 1834 127 8 4585)
   3500: system.cpu.rename: [tid:0] 0 instructions not yet in ROB
   3500: system.cpu.rename: calcFreeLQEntries: free lqEntries: 132, loadsInProgress: 0, loads dispatchedToLQ: 0
   3500: system.cpu.rename: [tid:0] Not blocked, so attempting to run stage.
   3500: system.cpu.rename: [tid:0] Nothing to do, breaking out early.
   3500: system.cpu.iew: Issue: Processing [tid:0]
   3500: system.cpu.iew: [tid:0] Not blocked, so attempting to run dispatch.
   3500: system.cpu.iq: Attempting to schedule ready instructions from the IQ.
   3500: system.cpu.iq: Not able to schedule any instructions.
   3500: system.cpu.iew: Processing [tid:0]
   3500: system.cpu.iew: [tid:0], Dispatch dispatched 0 instructions.
   3500: system.cpu.iew.lsq.thread0: SQ size: 72, #stores occupied: 0
   3500: system.cpu.iew.lsq.thread0: LQ size: 132, #loads occupied: 0
   3500: system.cpu.iew: IQ has 559 free entries (Can schedule: 0).  LQ has 132 free entries. SQ has 72 free entries.
   3500: system.cpu.commit: Getting instructions from Rename stage.
   3500: system.cpu.commit: Trying to commit instructions in the ROB.
   3500: system.cpu.commit: [tid:0] ROB has 0 insts & 918 free entries.
   4000: system.cpu.rename: Processing [tid:0]
   4000: system.cpu.rename: [tid:0] Free IQ: 559, Free ROB: 918, Free LQ: 132, Free SQ: 72, FreeRM 127(879 870 917 1834 127 8 4585)
   4000: system.cpu.rename: [tid:0] 0 instructions not yet in ROB
   4000: system.cpu.rename: calcFreeLQEntries: free lqEntries: 132, loadsInProgress: 0, loads dispatchedToLQ: 0
   4000: system.cpu.rename: [tid:0] Not blocked, so attempting to run stage.
   4000: system.cpu.rename: [tid:0] Nothing to do, breaking out early.
   4000: system.cpu.iew: Issue: Processing [tid:0]
   4000: system.cpu.iew: [tid:0] Not blocked, so attempting to run dispatch.
   4000: system.cpu.iq: Attempting to schedule ready instructions from the IQ.
   4000: system.cpu.iq: Not able to schedule any instructions.
   4000: system.cpu.iew: Processing [tid:0]
   4000: system.cpu.iew: [tid:0], Dispatch dispatched 0 instructions.
   4000: system.cpu.iew.lsq.thread0: SQ size: 72, #stores occupied: 0
   4000: system.cpu.iew.lsq.thread0: LQ size: 132, #loads occupied: 0
   4000: system.cpu.iew: IQ has 559 free entries (Can schedule: 0).  LQ has 132 free entries. SQ has 72 free entries.
   4000: system.cpu.commit: Getting instructions from Rename stage.
   4000: system.cpu.commit: Trying to commit instructions in the ROB.
   4000: system.cpu.commit: [tid:0] ROB has 0 insts & 918 free entries.
   4500: system.cpu.rename: Processing [tid:0]
   4500: system.cpu.rename: [tid:0] Free IQ: 559, Free ROB: 918, Free LQ: 132, Free SQ: 72, FreeRM 127(879 870 917 1834 127 8 4585)
   4500: system.cpu.rename: [tid:0] 0 instructions not yet in ROB
   4500: system.cpu.rename: calcFreeLQEntries: free lqEntries: 132, loadsInProgress: 0, loads dispatchedToLQ: 0
   4500: system.cpu.rename: [tid:0] Not blocked, so attempting to run stage.
   4500: system.cpu.rename: [tid:0] Nothing to do, breaking out early.
   4500: system.cpu.iew: Issue: Processing [tid:0]
   4500: system.cpu.iew: [tid:0] Not blocked, so attempting to run dispatch.
   4500: system.cpu.iq: Attempting to schedule ready instructions from the IQ.
   4500: system.cpu.iq: Not able to schedule any instructions.
   4500: system.cpu.iew: Processing [tid:0]
   4500: system.cpu.iew: [tid:0], Dispatch dispatched 0 instructions.
   4500: system.cpu.iew.lsq.thread0: SQ size: 72, #stores occupied: 0
   4500: system.cpu.iew.lsq.thread0: LQ size: 132, #loads occupied: 0
   4500: system.cpu.iew: IQ has 559 free entries (Can schedule: 0).  LQ has 132 free entries. SQ has 72 free entries.
   4500: system.cpu.commit: Getting instructions from Rename stage.
   4500: system.cpu.commit: Trying to commit instructions in the ROB.
   4500: system.cpu.commit: [tid:0] ROB has 0 insts & 918 free entries.
   5000: system.cpu.rename: Processing [tid:0]
   5000: system.cpu.rename: [tid:0] Free IQ: 559, Free ROB: 918, Free LQ: 132, Free SQ: 72, FreeRM 127(879 870 917 1834 127 8 4585)
   5000: system.cpu.rename: [tid:0] 0 instructions not yet in ROB
   5000: system.cpu.rename: calcFreeLQEntries: free lqEntries: 132, loadsInProgress: 0, loads dispatchedToLQ: 0
   5000: system.cpu.rename: [tid:0] Not blocked, so attempting to run stage.
   5000: system.cpu.rename: [tid:0] Nothing to do, breaking out early.
   5000: system.cpu.iew: Issue: Processing [tid:0]
   5000: system.cpu.iew: [tid:0] Not blocked, so attempting to run dispatch.
   5000: system.cpu.iq: Attempting to schedule ready instructions from the IQ.
   5000: system.cpu.iq: Not able to schedule any instructions.
   5000: system.cpu.iew: Processing [tid:0]
   5000: system.cpu.iew: [tid:0], Dispatch dispatched 0 instructions.
   5000: system.cpu.iew.lsq.thread0: SQ size: 72, #stores occupied: 0
   5000: system.cpu.iew.lsq.thread0: LQ size: 132, #loads occupied: 0
   5000: system.cpu.iew: IQ has 559 free entries (Can schedule: 0).  LQ has 132 free entries. SQ has 72 free entries.
   5000: system.cpu.commit: Getting instructions from Rename stage.
   5000: system.cpu.commit: Trying to commit instructions in the ROB.
   5000: system.cpu.commit: [tid:0] ROB has 0 insts & 918 free entries.
   5500: system.cpu.rename: Processing [tid:0]
   5500: system.cpu.rename: [tid:0] Free IQ: 559, Free ROB: 918, Free LQ: 132, Free SQ: 72, FreeRM 127(879 870 917 1834 127 8 4585)
   5500: system.cpu.rename: [tid:0] 0 instructions not yet in ROB
   5500: system.cpu.rename: calcFreeLQEntries: free lqEntries: 132, loadsInProgress: 0, loads dispatchedToLQ: 0
   5500: system.cpu.rename: [tid:0] Not blocked, so attempting to run stage.
   5500: system.cpu.rename: [tid:0] Nothing to do, breaking out early.
   5500: system.cpu.iew: Issue: Processing [tid:0]
   5500: system.cpu.iew: [tid:0] Not blocked, so attempting to run dispatch.
   5500: system.cpu.iq: Attempting to schedule ready instructions from the IQ.
   5500: system.cpu.iq: Not able to schedule any instructions.
   5500: system.cpu.iew: Processing [tid:0]
   5500: system.cpu.iew: [tid:0], Dispatch dispatched 0 instructions.
   5500: system.cpu.iew.lsq.thread0: SQ size: 72, #stores occupied: 0
   5500: system.cpu.iew.lsq.thread0: LQ size: 132, #loads occupied: 0
   5500: system.cpu.iew: IQ has 559 free entries (Can schedule: 0).  LQ has 132 free entries. SQ has 72 free entries.
   5500: system.cpu.commit: Getting instructions from Rename stage.
   5500: system.cpu.commit: Trying to commit instructions in the ROB.
   5500: system.cpu.commit: [tid:0] ROB has 0 insts & 918 free entries.
  64000: system.cpu.rename: Processing [tid:0]
  64000: system.cpu.rename: [tid:0] Free IQ: 559, Free ROB: 918, Free LQ: 132, Free SQ: 72, FreeRM 127(879 870 917 1834 127 8 4585)
  64000: system.cpu.rename: [tid:0] 0 instructions not yet in ROB
  64000: system.cpu.rename: calcFreeLQEntries: free lqEntries: 132, loadsInProgress: 0, loads dispatchedToLQ: 0
  64000: system.cpu.rename: [tid:0] Not blocked, so attempting to run stage.
  64000: system.cpu.rename: [tid:0] Nothing to do, breaking out early.
  64000: system.cpu.iew: Issue: Processing [tid:0]
  64000: system.cpu.iew: [tid:0] Not blocked, so attempting to run dispatch.
  64000: system.cpu.iq: Attempting to schedule ready instructions from the IQ.
  64000: system.cpu.iq: Not able to schedule any instructions.
  64000: system.cpu.iew: Processing [tid:0]
  64000: system.cpu.iew: [tid:0], Dispatch dispatched 0 instructions.
  64000: system.cpu.iew.lsq.thread0: SQ size: 72, #stores occupied: 0
  64000: system.cpu.iew.lsq.thread0: LQ size: 132, #loads occupied: 0
  64000: system.cpu.iew: IQ has 559 free entries (Can schedule: 0).  LQ has 132 free entries. SQ has 72 free entries.
  64000: system.cpu.commit: Getting instructions from Rename stage.
  64000: system.cpu.commit: Trying to commit instructions in the ROB.
  64000: system.cpu.commit: [tid:0] ROB has 0 insts & 918 free entries.
  64500: system.cpu.rename: Processing [tid:0]
  64500: system.cpu.rename: [tid:0] Free IQ: 559, Free ROB: 918, Free LQ: 132, Free SQ: 72, FreeRM 127(879 870 917 1834 127 8 4585)
  64500: system.cpu.rename: [tid:0] 0 instructions not yet in ROB
  64500: system.cpu.rename: calcFreeLQEntries: free lqEntries: 132, loadsInProgress: 0, loads dispatchedToLQ: 0
  64500: system.cpu.rename: [tid:0] Not blocked, so attempting to run stage.
  64500: system.cpu.rename: [tid:0] Nothing to do, breaking out early.
  64500: system.cpu.iew: Issue: Processing [tid:0]
  64500: system.cpu.iew: [tid:0] Not blocked, so attempting to run dispatch.
  64500: system.cpu.iq: Attempting to schedule ready instructions from the IQ.
  64500: system.cpu.iq: Not able to schedule any instructions.
  64500: system.cpu.iew: Processing [tid:0]
  64500: system.cpu.iew: [tid:0], Dispatch dispatched 0 instructions.
  64500: system.cpu.iew.lsq.thread0: SQ size: 72, #stores occupied: 0
  64500: system.cpu.iew.lsq.thread0: LQ size: 132, #loads occupied: 0
  64500: system.cpu.iew: IQ has 559 free entries (Can schedule: 0).  LQ has 132 free entries. SQ has 72 free entries.
  64500: system.cpu.commit: Getting instructions from Rename stage.
  64500: system.cpu.commit: Trying to commit instructions in the ROB.
  64500: system.cpu.commit: [tid:0] ROB has 0 insts & 918 free entries.
  65000: system.cpu.rename: Processing [tid:0]
  65000: system.cpu.rename: [tid:0] Free IQ: 559, Free ROB: 918, Free LQ: 132, Free SQ: 72, FreeRM 127(879 870 917 1834 127 8 4585)
  65000: system.cpu.rename: [tid:0] 0 instructions not yet in ROB
  65000: system.cpu.rename: calcFreeLQEntries: free lqEntries: 132, loadsInProgress: 0, loads dispatchedToLQ: 0
  65000: system.cpu.rename: [tid:0] Not blocked, so attempting to run stage.
  65000: system.cpu.rename: [tid:0] 10 available instructions to send iew.
  65000: system.cpu.rename: [tid:0] 0 insts pipelining from Rename | 0 insts dispatched to IQ last cycle.
  65000: system.cpu.rename: [tid:0] Sending instructions to IEW.
  65000: system.cpu.rename: [tid:0] Processing instruction [sn:1] with PC (0x401000=>0x401004).(0=>1).
  65000: global: Renamed reg t1 to physical reg 39 (39) old mapping was 17 (17)
  65000: system.cpu.rename: [tid:0] Renaming arch reg 17 (integer) to physical reg 39 (39).
  65000: system.cpu.rename: [tid:0] [sn:1] Adding instruction to history buffer (size=1).
  65000: system.cpu.rename: [tid:0] Sending instructions to IEW.
  65000: system.cpu.rename: [tid:0] Processing instruction [sn:2] with PC (0x401000=>0x401004).(1=>2).
  65000: system.cpu.rename: [tid:0] Looking up integer arch reg 4, got phys reg 4 (integer)
  65000: system.cpu.rename: [tid:0] Register 4 (flat: 4) (integer) is ready.
  65000: global: [sn:2] has 1 ready out of 7 sources. RTI 0)
  65000: system.cpu.rename: [tid:0] Looking up integer arch reg 17, got phys reg 39 (integer)
  65000: system.cpu.rename: [tid:0] Register 39 (flat: 39) (integer) is not ready.
  65000: system.cpu.rename: [tid:0] Looking up invalid arch reg 0, got phys reg 4294967295 (invalid)
  65000: system.cpu.rename: [tid:0] Register 4294967295 (flat: 4294967295) (invalid) is ready.
  65000: global: [sn:2] has 2 ready out of 7 sources. RTI 0)
  65000: system.cpu.rename: [tid:0] Looking up invalid arch reg 0, got phys reg 4294967295 (invalid)
  65000: system.cpu.rename: [tid:0] Register 4294967295 (flat: 4294967295) (invalid) is ready.
  65000: global: [sn:2] has 3 ready out of 7 sources. RTI 0)
  65000: system.cpu.rename: [tid:0] Looking up invalid arch reg 0, got phys reg 4294967295 (invalid)
  65000: system.cpu.rename: [tid:0] Register 4294967295 (flat: 4294967295) (invalid) is ready.
  65000: global: [sn:2] has 4 ready out of 7 sources. RTI 0)
  65000: system.cpu.rename: [tid:0] Looking up invalid arch reg 0, got phys reg 4294967295 (invalid)
  65000: system.cpu.rename: [tid:0] Register 4294967295 (flat: 4294967295) (invalid) is ready.
  65000: global: [sn:2] has 5 ready out of 7 sources. RTI 0)
  65000: system.cpu.rename: [tid:0] Looking up invalid arch reg 0, got phys reg 4294967295 (invalid)
  65000: system.cpu.rename: [tid:0] Register 4294967295 (flat: 4294967295) (invalid) is ready.
  65000: global: [sn:2] has 6 ready out of 7 sources. RTI 0)
  65000: global: Renamed reg rsp to physical reg 40 (40) old mapping was 4 (4)
  65000: system.cpu.rename: [tid:0] Renaming arch reg 4 (integer) to physical reg 40 (40).
  65000: system.cpu.rename: [tid:0] [sn:2] Adding instruction to history buffer (size=2).
  65000: global: Renamed reg condition_code[0] to physical reg 4731 (4731) old mapping was 4726 (4726)
  65000: system.cpu.rename: [tid:0] Renaming arch reg 0 (condition_code) to physical reg 5 (4731).
  65000: system.cpu.rename: [tid:0] [sn:2] Adding instruction to history buffer (size=3).
  65000: global: Renamed reg condition_code[1] to physical reg 4732 (4732) old mapping was 4727 (4727)
  65000: system.cpu.rename: [tid:0] Renaming arch reg 1 (condition_code) to physical reg 6 (4732).
  65000: system.cpu.rename: [tid:0] [sn:2] Adding instruction to history buffer (size=4).
  65000: system.cpu.rename: [tid:0] Renaming arch reg 0 (invalid) to physical reg 4294967295 (4294967295).
  65000: system.cpu.rename: [tid:0] [sn:2] Adding instruction to history buffer (size=5).
  65000: system.cpu.rename: [tid:0] Renaming arch reg 0 (invalid) to physical reg 4294967295 (4294967295).
  65000: system.cpu.rename: [tid:0] [sn:2] Adding instruction to history buffer (size=6).
  65000: system.cpu.rename: [tid:0] Renaming arch reg 0 (invalid) to physical reg 4294967295 (4294967295).
  65000: system.cpu.rename: [tid:0] [sn:2] Adding instruction to history buffer (size=7).
  65000: system.cpu.rename: [tid:0] Sending instructions to IEW.
  65000: system.cpu.rename: [tid:0] Processing instruction [sn:3] with PC (0x401004=>0x40100b).(0=>1).
  65000: global: Renamed reg t1 to physical reg 41 (41) old mapping was 39 (39)
  65000: system.cpu.rename: [tid:0] Renaming arch reg 17 (integer) to physical reg 41 (41).
  65000: system.cpu.rename: [tid:0] [sn:3] Adding instruction to history buffer (size=8).
  65000: system.cpu.rename: [tid:0] Sending instructions to IEW.
  65000: system.cpu.rename: calcFreeSQEntries: free sqEntries: 72, storesInProgress: 0, stores dispatchedToSQ: 0
  65000: system.cpu.rename: [tid:0] Processing instruction [sn:4] with PC (0x401004=>0x40100b).(1=>2).
  65000: system.cpu.rename: [tid:0] Looking up invalid arch reg 0, got phys reg 4294967295 (invalid)
  65000: system.cpu.rename: [tid:0] Register 4294967295 (flat: 4294967295) (invalid) is ready.
  65000: global: [sn:4] has 1 ready out of 4 sources. RTI 0)
  65000: system.cpu.rename: [tid:0] Looking up integer arch reg 4, got phys reg 40 (integer)
  65000: system.cpu.rename: [tid:0] Register 40 (flat: 40) (integer) is not ready.
  65000: system.cpu.rename: [tid:0] Looking up integer arch reg 17, got phys reg 41 (integer)
  65000: system.cpu.rename: [tid:0] Register 41 (flat: 41) (integer) is not ready.
  65000: system.cpu.rename: [tid:0] Looking up miscellaneous arch reg 154, got phys reg 154 (miscellaneous)
  65000: system.cpu.rename: [tid:0] Register 154 (flat: 0) (miscellaneous) is ready.
  65000: global: [sn:4] has 2 ready out of 4 sources. RTI 0)
  65000: system.cpu.rename: [tid:0] Sending instructions to IEW.
  65000: system.cpu.rename: calcFreeLQEntries: free lqEntries: 132, loadsInProgress: 0, loads dispatchedToLQ: 0
  65000: system.cpu.rename: [tid:0] Processing instruction [sn:5] with PC (0x40100b=>0x40100e).(0=>1).
  65000: system.cpu.rename: [tid:0] Looking up invalid arch reg 0, got phys reg 4294967295 (invalid)
  65000: system.cpu.rename: [tid:0] Register 4294967295 (flat: 4294967295) (invalid) is ready.
  65000: global: [sn:5] has 1 ready out of 3 sources. RTI 0)
  65000: system.cpu.rename: [tid:0] Looking up integer arch reg 4, got phys reg 40 (integer)
  65000: system.cpu.rename: [tid:0] Register 40 (flat: 40) (integer) is not ready.
  65000: system.cpu.rename: [tid:0] Looking up miscellaneous arch reg 154, got phys reg 154 (miscellaneous)
  65000: system.cpu.rename: [tid:0] Register 154 (flat: 0) (miscellaneous) is ready.
  65000: global: [sn:5] has 2 ready out of 3 sources. RTI 0)
  65000: global: Renamed reg rbx to physical reg 42 (42) old mapping was 3 (3)
  65000: system.cpu.rename: [tid:0] Renaming arch reg 3 (integer) to physical reg 42 (42).
  65000: system.cpu.rename: [tid:0] [sn:5] Adding instruction to history buffer (size=9).
  65000: system.cpu.rename: Bypassing Load [sn:5] speculatively.
  65000: system.cpu.rename: [tid:0] Renaming arch reg 3 (integer) to physical reg 41 (41) due to SMB bypass.
  65000: system.cpu.rename: [tid:0] Sending instructions to IEW.
  65000: system.cpu.rename: [tid:0] Processing instruction [sn:6] with PC (0x40100e=>0x401015).(0=>1).
  65000: global: Renamed reg rax to physical reg 43 (43) old mapping was 0 (0)
  65000: system.cpu.rename: [tid:0] Renaming arch reg 0 (integer) to physical reg 43 (43).
  65000: system.cpu.rename: [tid:0] [sn:6] Adding instruction to history buffer (size=11).
  65000: system.cpu.rename: [tid:0] Sending instructions to IEW.
  65000: system.cpu.rename: [tid:0] Processing instruction [sn:7] with PC (0x401015=>0x401018).(0=>1).
  65000: system.cpu.rename: [tid:0] Looking up integer arch reg 7, got phys reg 7 (integer)
  65000: system.cpu.rename: [tid:0] Register 7 (flat: 7) (integer) is ready.
  65000: global: [sn:7] has 1 ready out of 7 sources. RTI 0)
  65000: system.cpu.rename: [tid:0] Looking up integer arch reg 7, got phys reg 7 (integer)
  65000: system.cpu.rename: [tid:0] Register 7 (flat: 7) (integer) is ready.
  65000: global: [sn:7] has 2 ready out of 7 sources. RTI 0)
  65000: system.cpu.rename: [tid:0] Looking up invalid arch reg 0, got phys reg 4294967295 (invalid)
  65000: system.cpu.rename: [tid:0] Register 4294967295 (flat: 4294967295) (invalid) is ready.
  65000: global: [sn:7] has 3 ready out of 7 sources. RTI 0)
  65000: system.cpu.rename: [tid:0] Looking up invalid arch reg 0, got phys reg 4294967295 (invalid)
  65000: system.cpu.rename: [tid:0] Register 4294967295 (flat: 4294967295) (invalid) is ready.
  65000: global: [sn:7] has 4 ready out of 7 sources. RTI 0)
  65000: system.cpu.rename: [tid:0] Looking up invalid arch reg 0, got phys reg 4294967295 (invalid)
  65000: system.cpu.rename: [tid:0] Register 4294967295 (flat: 4294967295) (invalid) is ready.
  65000: global: [sn:7] has 5 ready out of 7 sources. RTI 0)
  65000: system.cpu.rename: [tid:0] Looking up invalid arch reg 0, got phys reg 4294967295 (invalid)
  65000: system.cpu.rename: [tid:0] Register 4294967295 (flat: 4294967295) (invalid) is ready.
  65000: global: [sn:7] has 6 ready out of 7 sources. RTI 0)
  65000: system.cpu.rename: [tid:0] Looking up invalid arch reg 0, got phys reg 4294967295 (invalid)
  65000: system.cpu.rename: [tid:0] Register 4294967295 (flat: 4294967295) (invalid) is ready.
  65000: global: [sn:7] has 7 ready out of 7 sources. RTI 0)
  65000: global: Renamed reg rdi to physical reg 44 (44) old mapping was 7 (7)
  65000: system.cpu.rename: [tid:0] Renaming arch reg 7 (integer) to physical reg 44 (44).
  65000: system.cpu.rename: [tid:0] [sn:7] Adding instruction to history buffer (size=12).
  65000: global: Renamed reg condition_code[0] to physical reg 4733 (4733) old mapping was 4731 (4731)
  65000: system.cpu.rename: [tid:0] Renaming arch reg 0 (condition_code) to physical reg 7 (4733).
  65000: system.cpu.rename: [tid:0] [sn:7] Adding instruction to history buffer (size=13).
  65000: global: Renamed reg condition_code[1] to physical reg 4734 (4734) old mapping was 4732 (4732)
  65000: system.cpu.rename: [tid:0] Renaming arch reg 1 (condition_code) to physical reg 8 (4734).
  65000: system.cpu.rename: [tid:0] [sn:7] Adding instruction to history buffer (size=14).
  65000: system.cpu.rename: [tid:0] Renaming arch reg 0 (invalid) to physical reg 4294967295 (4294967295).
  65000: system.cpu.rename: [tid:0] [sn:7] Adding instruction to history buffer (size=15).
  65000: system.cpu.rename: [tid:0] Renaming arch reg 0 (invalid) to physical reg 4294967295 (4294967295).
  65000: system.cpu.rename: [tid:0] [sn:7] Adding instruction to history buffer (size=16).
  65000: system.cpu.rename: [tid:0] Renaming arch reg 0 (invalid) to physical reg 4294967295 (4294967295).
  65000: system.cpu.rename: [tid:0] [sn:7] Adding instruction to history buffer (size=17).
  65000: system.cpu.rename: [tid:0] Sending instructions to IEW.
  65000: system.cpu.rename: [tid:0] Processing instruction [sn:8] with PC (0x401018=>0x40101c).(0=>1).
  65000: global: Renamed reg t1 to physical reg 45 (45) old mapping was 41 (41)
  65000: system.cpu.rename: [tid:0] Renaming arch reg 17 (integer) to physical reg 45 (45).
  65000: system.cpu.rename: [tid:0] [sn:8] Adding instruction to history buffer (size=18).
  65000: system.cpu.rename: [tid:0] Sending instructions to IEW.
  65000: system.cpu.rename: [tid:0] Processing instruction [sn:9] with PC (0x401018=>0x40101c).(1=>2).
  65000: system.cpu.rename: [tid:0] Looking up integer arch reg 4, got phys reg 40 (integer)
  65000: system.cpu.rename: [tid:0] Register 40 (flat: 40) (integer) is not ready.
  65000: system.cpu.rename: [tid:0] Looking up integer arch reg 17, got phys reg 45 (integer)
  65000: system.cpu.rename: [tid:0] Register 45 (flat: 45) (integer) is not ready.
  65000: system.cpu.rename: [tid:0] Looking up invalid arch reg 0, got phys reg 4294967295 (invalid)
  65000: system.cpu.rename: [tid:0] Register 4294967295 (flat: 4294967295) (invalid) is ready.
  65000: global: [sn:9] has 1 ready out of 7 sources. RTI 0)
  65000: system.cpu.rename: [tid:0] Looking up invalid arch reg 0, got phys reg 4294967295 (invalid)
  65000: system.cpu.rename: [tid:0] Register 4294967295 (flat: 4294967295) (invalid) is ready.
  65000: global: [sn:9] has 2 ready out of 7 sources. RTI 0)
  65000: system.cpu.rename: [tid:0] Looking up invalid arch reg 0, got phys reg 4294967295 (invalid)
  65000: system.cpu.rename: [tid:0] Register 4294967295 (flat: 4294967295) (invalid) is ready.
  65000: global: [sn:9] has 3 ready out of 7 sources. RTI 0)
  65000: system.cpu.rename: [tid:0] Looking up invalid arch reg 0, got phys reg 4294967295 (invalid)
  65000: system.cpu.rename: [tid:0] Register 4294967295 (flat: 4294967295) (invalid) is ready.
  65000: global: [sn:9] has 4 ready out of 7 sources. RTI 0)
  65000: system.cpu.rename: [tid:0] Looking up invalid arch reg 0, got phys reg 4294967295 (invalid)
  65000: system.cpu.rename: [tid:0] Register 4294967295 (flat: 4294967295) (invalid) is ready.
  65000: global: [sn:9] has 5 ready out of 7 sources. RTI 0)
  65000: global: Renamed reg rsp to physical reg 46 (46) old mapping was 40 (40)
  65000: system.cpu.rename: [tid:0] Renaming arch reg 4 (integer) to physical reg 46 (46).
  65000: system.cpu.rename: [tid:0] [sn:9] Adding instruction to history buffer (size=19).
  65000: global: Renamed reg condition_code[0] to physical reg 4735 (4735) old mapping was 4733 (4733)
  65000: system.cpu.rename: [tid:0] Renaming arch reg 0 (condition_code) to physical reg 9 (4735).
  65000: system.cpu.rename: [tid:0] [sn:9] Adding instruction to history buffer (size=20).
  65000: global: Renamed reg condition_code[1] to physical reg 4736 (4736) old mapping was 4734 (4734)
  65000: system.cpu.rename: [tid:0] Renaming arch reg 1 (condition_code) to physical reg 10 (4736).
  65000: system.cpu.rename: [tid:0] [sn:9] Adding instruction to history buffer (size=21).
  65000: system.cpu.rename: [tid:0] Renaming arch reg 0 (invalid) to physical reg 4294967295 (4294967295).
  65000: system.cpu.rename: [tid:0] [sn:9] Adding instruction to history buffer (size=22).
  65000: system.cpu.rename: [tid:0] Renaming arch reg 0 (invalid) to physical reg 4294967295 (4294967295).
  65000: system.cpu.rename: [tid:0] [sn:9] Adding instruction to history buffer (size=23).
  65000: system.cpu.rename: [tid:0] Renaming arch reg 0 (invalid) to physical reg 4294967295 (4294967295).
  65000: system.cpu.rename: [tid:0] [sn:9] Adding instruction to history buffer (size=24).
  65000: system.cpu.rename: [tid:0] Sending instructions to IEW.
  65000: system.cpu.rename: [tid:0] Processing instruction [sn:10] with PC (0x40101c=>0x40101e).(0=>1).
  65000: system.cpu.iew: Issue: Processing [tid:0]
  65000: system.cpu.iew: [tid:0] Not blocked, so attempting to run dispatch.
  65000: system.cpu.iq: Attempting to schedule ready instructions from the IQ.
  65000: system.cpu.iq: Not able to schedule any instructions.
  65000: system.cpu.iew: Processing [tid:0]
  65000: system.cpu.iew: [tid:0], Dispatch dispatched 0 instructions.
  65000: system.cpu.iew.lsq.thread0: SQ size: 72, #stores occupied: 0
  65000: system.cpu.iew.lsq.thread0: LQ size: 132, #loads occupied: 0
  65000: system.cpu.iew: IQ has 559 free entries (Can schedule: 0).  LQ has 132 free entries. SQ has 72 free entries.
  65000: system.cpu.commit: Getting instructions from Rename stage.
  65000: system.cpu.commit: Trying to commit instructions in the ROB.
  65000: system.cpu.commit: [tid:0] ROB has 0 insts & 918 free entries.
  65500: system.cpu.rename: Processing [tid:0]
  65500: system.cpu.rename: [tid:0] Free IQ: 559, Free ROB: 918, Free LQ: 132, Free SQ: 72, FreeRM 127(871 870 917 1834 127 8 4579)
  65500: system.cpu.rename: [tid:0] 10 instructions not yet in ROB
  65500: system.cpu.rename: calcFreeLQEntries: free lqEntries: 132, loadsInProgress: 1, loads dispatchedToLQ: 0
  65500: system.cpu.rename: [tid:0] Not blocked, so attempting to run stage.
  65500: system.cpu.rename: [tid:0] 10 available instructions to send iew.
  65500: system.cpu.rename: [tid:0] 10 insts pipelining from Rename | 0 insts dispatched to IQ last cycle.
  65500: system.cpu.rename: [tid:0] Sending instructions to IEW.
  65500: system.cpu.rename: calcFreeLQEntries: free lqEntries: 132, loadsInProgress: 1, loads dispatchedToLQ: 0
  65500: system.cpu.rename: [tid:0] Processing instruction [sn:11] with PC (0x40101e=>0x401020).(0=>1).
  65500: system.cpu.rename: [tid:0] Looking up invalid arch reg 0, got phys reg 4294967295 (invalid)
  65500: system.cpu.rename: [tid:0] Register 4294967295 (flat: 4294967295) (invalid) is ready.
  65500: global: [sn:11] has 1 ready out of 4 sources. RTI 0)
  65500: system.cpu.rename: [tid:0] Looking up integer arch reg 0, got phys reg 43 (integer)
  65500: system.cpu.rename: [tid:0] Register 43 (flat: 43) (integer) is not ready.
  65500: system.cpu.rename: [tid:0] Looking up integer arch reg 17, got phys reg 45 (integer)
  65500: system.cpu.rename: [tid:0] Register 45 (flat: 45) (integer) is not ready.
  65500: system.cpu.rename: [tid:0] Looking up miscellaneous arch reg 155, got phys reg 155 (miscellaneous)
  65500: system.cpu.rename: [tid:0] Register 155 (flat: 0) (miscellaneous) is ready.
  65500: global: [sn:11] has 2 ready out of 4 sources. RTI 0)
  65500: global: Renamed reg t1 to physical reg 47 (47) old mapping was 45 (45)
  65500: system.cpu.rename: [tid:0] Renaming arch reg 17 (integer) to physical reg 47 (47).
  65500: system.cpu.rename: [tid:0] [sn:11] Adding instruction to history buffer (size=25).
  65500: system.cpu.rename: [tid:0] Sending instructions to IEW.
  65500: system.cpu.rename: [tid:0] Processing instruction [sn:12] with PC (0x40101e=>0x401020).(1=>2).
  65500: system.cpu.rename: [tid:0] Looking up integer arch reg 17, got phys reg 47 (integer)
  65500: system.cpu.rename: [tid:0] Register 47 (flat: 47) (integer) is not ready.
  65500: system.cpu.rename: [tid:0] Looking up integer arch reg 0, got phys reg 43 (integer)
  65500: system.cpu.rename: [tid:0] Register 43 (flat: 43) (integer) is not ready.
  65500: system.cpu.rename: [tid:0] Looking up integer arch reg 17, got phys reg 47 (integer)
  65500: system.cpu.rename: [tid:0] Register 47 (flat: 47) (integer) is not ready.
  65500: system.cpu.rename: [tid:0] Looking up invalid arch reg 0, got phys reg 4294967295 (invalid)
  65500: system.cpu.rename: [tid:0] Register 4294967295 (flat: 4294967295) (invalid) is ready.
  65500: global: [sn:12] has 1 ready out of 8 sources. RTI 0)
  65500: system.cpu.rename: [tid:0] Looking up invalid arch reg 0, got phys reg 4294967295 (invalid)
  65500: system.cpu.rename: [tid:0] Register 4294967295 (flat: 4294967295) (invalid) is ready.
  65500: global: [sn:12] has 2 ready out of 8 sources. RTI 0)
  65500: system.cpu.rename: [tid:0] Looking up invalid arch reg 0, got phys reg 4294967295 (invalid)
  65500: system.cpu.rename: [tid:0] Register 4294967295 (flat: 4294967295) (invalid) is ready.
  65500: global: [sn:12] has 3 ready out of 8 sources. RTI 0)
  65500: system.cpu.rename: [tid:0] Looking up invalid arch reg 0, got phys reg 4294967295 (invalid)
  65500: system.cpu.rename: [tid:0] Register 4294967295 (flat: 4294967295) (invalid) is ready.
  65500: global: [sn:12] has 4 ready out of 8 sources. RTI 0)
  65500: system.cpu.rename: [tid:0] Looking up invalid arch reg 0, got phys reg 4294967295 (invalid)
  65500: system.cpu.rename: [tid:0] Register 4294967295 (flat: 4294967295) (invalid) is ready.
  65500: global: [sn:12] has 5 ready out of 8 sources. RTI 0)
  65500: global: Renamed reg t1 to physical reg 48 (48) old mapping was 47 (47)
  65500: system.cpu.rename: [tid:0] Renaming arch reg 17 (integer) to physical reg 48 (48).
  65500: system.cpu.rename: [tid:0] [sn:12] Adding instruction to history buffer (size=26).
  65500: global: Renamed reg condition_code[0] to physical reg 4737 (4737) old mapping was 4735 (4735)
  65500: system.cpu.rename: [tid:0] Renaming arch reg 0 (condition_code) to physical reg 11 (4737).
  65500: system.cpu.rename: [tid:0] [sn:12] Adding instruction to history buffer (size=27).
  65500: global: Renamed reg condition_code[1] to physical reg 4738 (4738) old mapping was 4736 (4736)
  65500: system.cpu.rename: [tid:0] Renaming arch reg 1 (condition_code) to physical reg 12 (4738).
  65500: system.cpu.rename: [tid:0] [sn:12] Adding instruction to history buffer (size=28).
  65500: system.cpu.rename: [tid:0] Renaming arch reg 0 (invalid) to physical reg 4294967295 (4294967295).
  65500: system.cpu.rename: [tid:0] [sn:12] Adding instruction to history buffer (size=29).
  65500: system.cpu.rename: [tid:0] Renaming arch reg 0 (invalid) to physical reg 4294967295 (4294967295).
  65500: system.cpu.rename: [tid:0] [sn:12] Adding instruction to history buffer (size=30).
  65500: system.cpu.rename: [tid:0] Renaming arch reg 0 (invalid) to physical reg 4294967295 (4294967295).
  65500: system.cpu.rename: [tid:0] [sn:12] Adding instruction to history buffer (size=31).
  65500: system.cpu.rename: [tid:0] Sending instructions to IEW.
  65500: system.cpu.rename: calcFreeSQEntries: free sqEntries: 72, storesInProgress: 1, stores dispatchedToSQ: 0
  65500: system.cpu.rename: [tid:0] Processing instruction [sn:13] with PC (0x40101e=>0x401020).(2=>3).
  65500: system.cpu.rename: [tid:0] Looking up invalid arch reg 0, got phys reg 4294967295 (invalid)
  65500: system.cpu.rename: [tid:0] Register 4294967295 (flat: 4294967295) (invalid) is ready.
  65500: global: [sn:13] has 1 ready out of 4 sources. RTI 0)
  65500: system.cpu.rename: [tid:0] Looking up integer arch reg 0, got phys reg 43 (integer)
  65500: system.cpu.rename: [tid:0] Register 43 (flat: 43) (integer) is not ready.
  65500: system.cpu.rename: [tid:0] Looking up integer arch reg 17, got phys reg 48 (integer)
  65500: system.cpu.rename: [tid:0] Register 48 (flat: 48) (integer) is not ready.
  65500: system.cpu.rename: [tid:0] Looking up miscellaneous arch reg 155, got phys reg 155 (miscellaneous)
  65500: system.cpu.rename: [tid:0] Register 155 (flat: 0) (miscellaneous) is ready.
  65500: global: [sn:13] has 2 ready out of 4 sources. RTI 0)
  65500: system.cpu.rename: [tid:0] Sending instructions to IEW.
  65500: system.cpu.rename: calcFreeLQEntries: free lqEntries: 132, loadsInProgress: 2, loads dispatchedToLQ: 0
  65500: system.cpu.rename: [tid:0] Processing instruction [sn:14] with PC (0x401020=>0x401022).(0=>1).
  65500: system.cpu.rename: [tid:0] Looking up invalid arch reg 0, got phys reg 4294967295 (invalid)
  65500: system.cpu.rename: [tid:0] Register 4294967295 (flat: 4294967295) (invalid) is ready.
  65500: global: [sn:14] has 1 ready out of 4 sources. RTI 0)
  65500: system.cpu.rename: [tid:0] Looking up integer arch reg 0, got phys reg 43 (integer)
  65500: system.cpu.rename: [tid:0] Register 43 (flat: 43) (integer) is not ready.
  65500: system.cpu.rename: [tid:0] Looking up integer arch reg 17, got phys reg 48 (integer)
  65500: system.cpu.rename: [tid:0] Register 48 (flat: 48) (integer) is not ready.
  65500: system.cpu.rename: [tid:0] Looking up miscellaneous arch reg 155, got phys reg 155 (miscellaneous)
  65500: system.cpu.rename: [tid:0] Register 155 (flat: 0) (miscellaneous) is ready.
  65500: global: [sn:14] has 2 ready out of 4 sources. RTI 0)
  65500: global: Renamed reg t1 to physical reg 49 (49) old mapping was 48 (48)
  65500: system.cpu.rename: [tid:0] Renaming arch reg 17 (integer) to physical reg 49 (49).
  65500: system.cpu.rename: [tid:0] [sn:14] Adding instruction to history buffer (size=32).
  65500: system.cpu.rename: [tid:0] Sending instructions to IEW.
  65500: system.cpu.rename: [tid:0] Processing instruction [sn:15] with PC (0x401020=>0x401022).(1=>2).
  65500: system.cpu.rename: [tid:0] Looking up integer arch reg 17, got phys reg 49 (integer)
  65500: system.cpu.rename: [tid:0] Register 49 (flat: 49) (integer) is not ready.
  65500: system.cpu.rename: [tid:0] Looking up integer arch reg 0, got phys reg 43 (integer)
  65500: system.cpu.rename: [tid:0] Register 43 (flat: 43) (integer) is not ready.
  65500: system.cpu.rename: [tid:0] Looking up integer arch reg 17, got phys reg 49 (integer)
  65500: system.cpu.rename: [tid:0] Register 49 (flat: 49) (integer) is not ready.
  65500: system.cpu.rename: [tid:0] Looking up invalid arch reg 0, got phys reg 4294967295 (invalid)
  65500: system.cpu.rename: [tid:0] Register 4294967295 (flat: 4294967295) (invalid) is ready.
  65500: global: [sn:15] has 1 ready out of 8 sources. RTI 0)
  65500: system.cpu.rename: [tid:0] Looking up invalid arch reg 0, got phys reg 4294967295 (invalid)
  65500: system.cpu.rename: [tid:0] Register 4294967295 (flat: 4294967295) (invalid) is ready.
  65500: global: [sn:15] has 2 ready out of 8 sources. RTI 0)
  65500: system.cpu.rename: [tid:0] Looking up invalid arch reg 0, got phys reg 4294967295 (invalid)
  65500: system.cpu.rename: [tid:0] Register 4294967295 (flat: 4294967295) (invalid) is ready.
  65500: global: [sn:15] has 3 ready out of 8 sources. RTI 0)
  65500: system.cpu.rename: [tid:0] Looking up invalid arch reg 0, got phys reg 4294967295 (invalid)
  65500: system.cpu.rename: [tid:0] Register 4294967295 (flat: 4294967295) (invalid) is ready.
  65500: global: [sn:15] has 4 ready out of 8 sources. RTI 0)
  65500: system.cpu.rename: [tid:0] Looking up invalid arch reg 0, got phys reg 4294967295 (invalid)
  65500: system.cpu.rename: [tid:0] Register 4294967295 (flat: 4294967295) (invalid) is ready.
  65500: global: [sn:15] has 5 ready out of 8 sources. RTI 0)
  65500: global: Renamed reg t1 to physical reg 50 (50) old mapping was 49 (49)
  65500: system.cpu.rename: [tid:0] Renaming arch reg 17 (integer) to physical reg 50 (50).
  65500: system.cpu.rename: [tid:0] [sn:15] Adding instruction to history buffer (size=33).
  65500: global: Renamed reg condition_code[0] to physical reg 4739 (4739) old mapping was 4737 (4737)
  65500: system.cpu.rename: [tid:0] Renaming arch reg 0 (condition_code) to physical reg 13 (4739).
  65500: system.cpu.rename: [tid:0] [sn:15] Adding instruction to history buffer (size=34).
  65500: global: Renamed reg condition_code[1] to physical reg 4740 (4740) old mapping was 4738 (4738)
  65500: system.cpu.rename: [tid:0] Renaming arch reg 1 (condition_code) to physical reg 14 (4740).
  65500: system.cpu.rename: [tid:0] [sn:15] Adding instruction to history buffer (size=35).
  65500: system.cpu.rename: [tid:0] Renaming arch reg 0 (invalid) to physical reg 4294967295 (4294967295).
  65500: system.cpu.rename: [tid:0] [sn:15] Adding instruction to history buffer (size=36).
  65500: system.cpu.rename: [tid:0] Renaming arch reg 0 (invalid) to physical reg 4294967295 (4294967295).
  65500: system.cpu.rename: [tid:0] [sn:15] Adding instruction to history buffer (size=37).
  65500: system.cpu.rename: [tid:0] Renaming arch reg 0 (invalid) to physical reg 4294967295 (4294967295).
  65500: system.cpu.rename: [tid:0] [sn:15] Adding instruction to history buffer (size=38).
  65500: system.cpu.rename: [tid:0] Sending instructions to IEW.
  65500: system.cpu.rename: calcFreeSQEntries: free sqEntries: 72, storesInProgress: 2, stores dispatchedToSQ: 0
  65500: system.cpu.rename: [tid:0] Processing instruction [sn:16] with PC (0x401020=>0x401022).(2=>3).
  65500: system.cpu.rename: [tid:0] Looking up invalid arch reg 0, got phys reg 4294967295 (invalid)
  65500: system.cpu.rename: [tid:0] Register 4294967295 (flat: 4294967295) (invalid) is ready.
  65500: global: [sn:16] has 1 ready out of 4 sources. RTI 0)
  65500: system.cpu.rename: [tid:0] Looking up integer arch reg 0, got phys reg 43 (integer)
  65500: system.cpu.rename: [tid:0] Register 43 (flat: 43) (integer) is not ready.
  65500: system.cpu.rename: [tid:0] Looking up integer arch reg 17, got phys reg 50 (integer)
  65500: system.cpu.rename: [tid:0] Register 50 (flat: 50) (integer) is not ready.
  65500: system.cpu.rename: [tid:0] Looking up miscellaneous arch reg 155, got phys reg 155 (miscellaneous)
  65500: system.cpu.rename: [tid:0] Register 155 (flat: 0) (miscellaneous) is ready.
  65500: global: [sn:16] has 2 ready out of 4 sources. RTI 0)
  65500: system.cpu.rename: [tid:0] Sending instructions to IEW.
  65500: system.cpu.rename: calcFreeLQEntries: free lqEntries: 132, loadsInProgress: 3, loads dispatchedToLQ: 0
  65500: system.cpu.rename: [tid:0] Processing instruction [sn:17] with PC (0x401022=>0x401024).(0=>1).
  65500: system.cpu.rename: [tid:0] Looking up invalid arch reg 0, got phys reg 4294967295 (invalid)
  65500: system.cpu.rename: [tid:0] Register 4294967295 (flat: 4294967295) (invalid) is ready.
  65500: global: [sn:17] has 1 ready out of 4 sources. RTI 0)
  65500: system.cpu.rename: [tid:0] Looking up integer arch reg 0, got phys reg 43 (integer)
  65500: system.cpu.rename: [tid:0] Register 43 (flat: 43) (integer) is not ready.
  65500: system.cpu.rename: [tid:0] Looking up integer arch reg 17, got phys reg 50 (integer)
  65500: system.cpu.rename: [tid:0] Register 50 (flat: 50) (integer) is not ready.
  65500: system.cpu.rename: [tid:0] Looking up miscellaneous arch reg 155, got phys reg 155 (miscellaneous)
  65500: system.cpu.rename: [tid:0] Register 155 (flat: 0) (miscellaneous) is ready.
  65500: global: [sn:17] has 2 ready out of 4 sources. RTI 0)
  65500: global: Renamed reg t1 to physical reg 51 (51) old mapping was 50 (50)
  65500: system.cpu.rename: [tid:0] Renaming arch reg 17 (integer) to physical reg 51 (51).
  65500: system.cpu.rename: [tid:0] [sn:17] Adding instruction to history buffer (size=39).
  65500: system.cpu.rename: [tid:0] Sending instructions to IEW.
  65500: system.cpu.rename: [tid:0] Processing instruction [sn:18] with PC (0x401022=>0x401024).(1=>2).
  65500: system.cpu.rename: [tid:0] Looking up integer arch reg 17, got phys reg 51 (integer)
  65500: system.cpu.rename: [tid:0] Register 51 (flat: 51) (integer) is not ready.
  65500: system.cpu.rename: [tid:0] Looking up integer arch reg 0, got phys reg 43 (integer)
  65500: system.cpu.rename: [tid:0] Register 43 (flat: 43) (integer) is not ready.
  65500: system.cpu.rename: [tid:0] Looking up integer arch reg 17, got phys reg 51 (integer)
  65500: system.cpu.rename: [tid:0] Register 51 (flat: 51) (integer) is not ready.
  65500: system.cpu.rename: [tid:0] Looking up invalid arch reg 0, got phys reg 4294967295 (invalid)
  65500: system.cpu.rename: [tid:0] Register 4294967295 (flat: 4294967295) (invalid) is ready.
  65500: global: [sn:18] has 1 ready out of 8 sources. RTI 0)
  65500: system.cpu.rename: [tid:0] Looking up invalid arch reg 0, got phys reg 4294967295 (invalid)
  65500: system.cpu.rename: [tid:0] Register 4294967295 (flat: 4294967295) (invalid) is ready.
  65500: global: [sn:18] has 2 ready out of 8 sources. RTI 0)
  65500: system.cpu.rename: [tid:0] Looking up invalid arch reg 0, got phys reg 4294967295 (invalid)
  65500: system.cpu.rename: [tid:0] Register 4294967295 (flat: 4294967295) (invalid) is ready.
  65500: global: [sn:18] has 3 ready out of 8 sources. RTI 0)
  65500: system.cpu.rename: [tid:0] Looking up invalid arch reg 0, got phys reg 4294967295 (invalid)
  65500: system.cpu.rename: [tid:0] Register 4294967295 (flat: 4294967295) (invalid) is ready.
  65500: global: [sn:18] has 4 ready out of 8 sources. RTI 0)
  65500: system.cpu.rename: [tid:0] Looking up invalid arch reg 0, got phys reg 4294967295 (invalid)
  65500: system.cpu.rename: [tid:0] Register 4294967295 (flat: 4294967295) (invalid) is ready.
  65500: global: [sn:18] has 5 ready out of 8 sources. RTI 0)
  65500: global: Renamed reg t1 to physical reg 52 (52) old mapping was 51 (51)
  65500: system.cpu.rename: [tid:0] Renaming arch reg 17 (integer) to physical reg 52 (52).
  65500: system.cpu.rename: [tid:0] [sn:18] Adding instruction to history buffer (size=40).
  65500: global: Renamed reg condition_code[0] to physical reg 4741 (4741) old mapping was 4739 (4739)
  65500: system.cpu.rename: [tid:0] Renaming arch reg 0 (condition_code) to physical reg 15 (4741).
  65500: system.cpu.rename: [tid:0] [sn:18] Adding instruction to history buffer (size=41).
  65500: global: Renamed reg condition_code[1] to physical reg 4742 (4742) old mapping was 4740 (4740)
  65500: system.cpu.rename: [tid:0] Renaming arch reg 1 (condition_code) to physical reg 16 (4742).
  65500: system.cpu.rename: [tid:0] [sn:18] Adding instruction to history buffer (size=42).
  65500: system.cpu.rename: [tid:0] Renaming arch reg 0 (invalid) to physical reg 4294967295 (4294967295).
  65500: system.cpu.rename: [tid:0] [sn:18] Adding instruction to history buffer (size=43).
  65500: system.cpu.rename: [tid:0] Renaming arch reg 0 (invalid) to physical reg 4294967295 (4294967295).
  65500: system.cpu.rename: [tid:0] [sn:18] Adding instruction to history buffer (size=44).
  65500: system.cpu.rename: [tid:0] Renaming arch reg 0 (invalid) to physical reg 4294967295 (4294967295).
  65500: system.cpu.rename: [tid:0] [sn:18] Adding instruction to history buffer (size=45).
  65500: system.cpu.rename: [tid:0] Sending instructions to IEW.
  65500: system.cpu.rename: calcFreeSQEntries: free sqEntries: 72, storesInProgress: 3, stores dispatchedToSQ: 0
  65500: system.cpu.rename: [tid:0] Processing instruction [sn:19] with PC (0x401022=>0x401024).(2=>3).
  65500: system.cpu.rename: [tid:0] Looking up invalid arch reg 0, got phys reg 4294967295 (invalid)
  65500: system.cpu.rename: [tid:0] Register 4294967295 (flat: 4294967295) (invalid) is ready.
  65500: global: [sn:19] has 1 ready out of 4 sources. RTI 0)
  65500: system.cpu.rename: [tid:0] Looking up integer arch reg 0, got phys reg 43 (integer)
  65500: system.cpu.rename: [tid:0] Register 43 (flat: 43) (integer) is not ready.
  65500: system.cpu.rename: [tid:0] Looking up integer arch reg 17, got phys reg 52 (integer)
  65500: system.cpu.rename: [tid:0] Register 52 (flat: 52) (integer) is not ready.
  65500: system.cpu.rename: [tid:0] Looking up miscellaneous arch reg 155, got phys reg 155 (miscellaneous)
  65500: system.cpu.rename: [tid:0] Register 155 (flat: 0) (miscellaneous) is ready.
  65500: global: [sn:19] has 2 ready out of 4 sources. RTI 0)
  65500: system.cpu.rename: [tid:0] Sending instructions to IEW.
  65500: system.cpu.rename: calcFreeLQEntries: free lqEntries: 132, loadsInProgress: 4, loads dispatchedToLQ: 0
  65500: system.cpu.rename: [tid:0] Processing instruction [sn:20] with PC (0x401024=>0x401026).(0=>1).
  65500: system.cpu.rename: [tid:0] Looking up invalid arch reg 0, got phys reg 4294967295 (invalid)
  65500: system.cpu.rename: [tid:0] Register 4294967295 (flat: 4294967295) (invalid) is ready.
  65500: global: [sn:20] has 1 ready out of 4 sources. RTI 0)
  65500: system.cpu.rename: [tid:0] Looking up integer arch reg 0, got phys reg 43 (integer)
  65500: system.cpu.rename: [tid:0] Register 43 (flat: 43) (integer) is not ready.
  65500: system.cpu.rename: [tid:0] Looking up integer arch reg 17, got phys reg 52 (integer)
  65500: system.cpu.rename: [tid:0] Register 52 (flat: 52) (integer) is not ready.
  65500: system.cpu.rename: [tid:0] Looking up miscellaneous arch reg 155, got phys reg 155 (miscellaneous)
  65500: system.cpu.rename: [tid:0] Register 155 (flat: 0) (miscellaneous) is ready.
  65500: global: [sn:20] has 2 ready out of 4 sources. RTI 0)
  65500: global: Renamed reg t1 to physical reg 53 (53) old mapping was 52 (52)
  65500: system.cpu.rename: [tid:0] Renaming arch reg 17 (integer) to physical reg 53 (53).
  65500: system.cpu.rename: [tid:0] [sn:20] Adding instruction to history buffer (size=46).
  65500: system.cpu.iew: Issue: Processing [tid:0]
  65500: system.cpu.iew: [tid:0] Not blocked, so attempting to run dispatch.
  65500: system.cpu.iq: Attempting to schedule ready instructions from the IQ.
  65500: system.cpu.iq: Not able to schedule any instructions.
  65500: system.cpu.iew: Processing [tid:0]
  65500: system.cpu.iew: [tid:0], Dispatch dispatched 0 instructions.
  65500: system.cpu.iew.lsq.thread0: SQ size: 72, #stores occupied: 0
  65500: system.cpu.iew.lsq.thread0: LQ size: 132, #loads occupied: 0
  65500: system.cpu.iew: IQ has 559 free entries (Can schedule: 0).  LQ has 132 free entries. SQ has 72 free entries.
  65500: system.cpu.commit: Getting instructions from Rename stage.
  65500: system.cpu.commit: [tid:0] [sn:1] Inserting PC (0x401000=>0x401004).(0=>1) into ROB.
  65500: system.cpu.commit: [tid:0] [sn:2] Inserting PC (0x401000=>0x401004).(1=>2) into ROB.
  65500: system.cpu.commit: [tid:0] [sn:3] Inserting PC (0x401004=>0x40100b).(0=>1) into ROB.
  65500: system.cpu.commit: [tid:0] [sn:4] Inserting PC (0x401004=>0x40100b).(1=>2) into ROB.
  65500: system.cpu.commit: [tid:0] [sn:5] Inserting PC (0x40100b=>0x40100e).(0=>1) into ROB.
  65500: system.cpu.commit: [tid:0] [sn:6] Inserting PC (0x40100e=>0x401015).(0=>1) into ROB.
  65500: system.cpu.commit: [tid:0] [sn:7] Inserting PC (0x401015=>0x401018).(0=>1) into ROB.
  65500: system.cpu.commit: [tid:0] [sn:8] Inserting PC (0x401018=>0x40101c).(0=>1) into ROB.
  65500: system.cpu.commit: [tid:0] [sn:9] Inserting PC (0x401018=>0x40101c).(1=>2) into ROB.
  65500: system.cpu.commit: [tid:0] [sn:10] Inserting PC (0x40101c=>0x40101e).(0=>1) into ROB.
  65500: system.cpu.commit: Trying to commit instructions in the ROB.
  65500: system.cpu.commit: [tid:0] Can't commit, Instruction [sn:1] PC (0x401000=>0x401004).(0=>1) is head of ROB and not ready
  65500: system.cpu.commit: [tid:0] ROB has 10 insts & 908 free entries.
  66000: system.cpu.rename: Processing [tid:0]
  66000: system.cpu.rename: [tid:0] Free IQ: 559, Free ROB: 908, Free LQ: 132, Free SQ: 72, FreeRM 127(864 870 917 1834 127 8 4573)
  66000: system.cpu.rename: [tid:0] 20 instructions not yet in ROB
  66000: system.cpu.rename: calcFreeLQEntries: free lqEntries: 132, loadsInProgress: 5, loads dispatchedToLQ: 0
  66000: system.cpu.rename: [tid:0] Not blocked, so attempting to run stage.
  66000: system.cpu.rename: [tid:0] 10 available instructions to send iew.
  66000: system.cpu.rename: [tid:0] 20 insts pipelining from Rename | 0 insts dispatched to IQ last cycle.
  66000: system.cpu.rename: [tid:0] Sending instructions to IEW.
  66000: system.cpu.rename: [tid:0] Processing instruction [sn:21] with PC (0x401024=>0x401026).(1=>2).
  66000: system.cpu.rename: [tid:0] Looking up integer arch reg 17, got phys reg 53 (integer)
  66000: system.cpu.rename: [tid:0] Register 53 (flat: 53) (integer) is not ready.
  66000: system.cpu.rename: [tid:0] Looking up integer arch reg 0, got phys reg 43 (integer)
  66000: system.cpu.rename: [tid:0] Register 43 (flat: 43) (integer) is not ready.
  66000: system.cpu.rename: [tid:0] Looking up integer arch reg 17, got phys reg 53 (integer)
  66000: system.cpu.rename: [tid:0] Register 53 (flat: 53) (integer) is not ready.
  66000: system.cpu.rename: [tid:0] Looking up invalid arch reg 0, got phys reg 4294967295 (invalid)
  66000: system.cpu.rename: [tid:0] Register 4294967295 (flat: 4294967295) (invalid) is ready.
  66000: global: [sn:21] has 1 ready out of 8 sources. RTI 0)
  66000: system.cpu.rename: [tid:0] Looking up invalid arch reg 0, got phys reg 4294967295 (invalid)
  66000: system.cpu.rename: [tid:0] Register 4294967295 (flat: 4294967295) (invalid) is ready.
  66000: global: [sn:21] has 2 ready out of 8 sources. RTI 0)
  66000: system.cpu.rename: [tid:0] Looking up invalid arch reg 0, got phys reg 4294967295 (invalid)
  66000: system.cpu.rename: [tid:0] Register 4294967295 (flat: 4294967295) (invalid) is ready.
  66000: global: [sn:21] has 3 ready out of 8 sources. RTI 0)
  66000: system.cpu.rename: [tid:0] Looking up invalid arch reg 0, got phys reg 4294967295 (invalid)
  66000: system.cpu.rename: [tid:0] Register 4294967295 (flat: 4294967295) (invalid) is ready.
  66000: global: [sn:21] has 4 ready out of 8 sources. RTI 0)
  66000: system.cpu.rename: [tid:0] Looking up invalid arch reg 0, got phys reg 4294967295 (invalid)
  66000: system.cpu.rename: [tid:0] Register 4294967295 (flat: 4294967295) (invalid) is ready.
  66000: global: [sn:21] has 5 ready out of 8 sources. RTI 0)
  66000: global: Renamed reg t1 to physical reg 54 (54) old mapping was 53 (53)
  66000: system.cpu.rename: [tid:0] Renaming arch reg 17 (integer) to physical reg 54 (54).
  66000: system.cpu.rename: [tid:0] [sn:21] Adding instruction to history buffer (size=47).
  66000: global: Renamed reg condition_code[0] to physical reg 4743 (4743) old mapping was 4741 (4741)
  66000: system.cpu.rename: [tid:0] Renaming arch reg 0 (condition_code) to physical reg 17 (4743).
  66000: system.cpu.rename: [tid:0] [sn:21] Adding instruction to history buffer (size=48).
  66000: global: Renamed reg condition_code[1] to physical reg 4744 (4744) old mapping was 4742 (4742)
  66000: system.cpu.rename: [tid:0] Renaming arch reg 1 (condition_code) to physical reg 18 (4744).
  66000: system.cpu.rename: [tid:0] [sn:21] Adding instruction to history buffer (size=49).
  66000: system.cpu.rename: [tid:0] Renaming arch reg 0 (invalid) to physical reg 4294967295 (4294967295).
  66000: system.cpu.rename: [tid:0] [sn:21] Adding instruction to history buffer (size=50).
  66000: system.cpu.rename: [tid:0] Renaming arch reg 0 (invalid) to physical reg 4294967295 (4294967295).
  66000: system.cpu.rename: [tid:0] [sn:21] Adding instruction to history buffer (size=51).
  66000: system.cpu.rename: [tid:0] Renaming arch reg 0 (invalid) to physical reg 4294967295 (4294967295).
  66000: system.cpu.rename: [tid:0] [sn:21] Adding instruction to history buffer (size=52).
  66000: system.cpu.rename: [tid:0] Sending instructions to IEW.
  66000: system.cpu.rename: calcFreeSQEntries: free sqEntries: 72, storesInProgress: 4, stores dispatchedToSQ: 0
  66000: system.cpu.rename: [tid:0] Processing instruction [sn:22] with PC (0x401024=>0x401026).(2=>3).
  66000: system.cpu.rename: [tid:0] Looking up invalid arch reg 0, got phys reg 4294967295 (invalid)
  66000: system.cpu.rename: [tid:0] Register 4294967295 (flat: 4294967295) (invalid) is ready.
  66000: global: [sn:22] has 1 ready out of 4 sources. RTI 0)
  66000: system.cpu.rename: [tid:0] Looking up integer arch reg 0, got phys reg 43 (integer)
  66000: system.cpu.rename: [tid:0] Register 43 (flat: 43) (integer) is not ready.
  66000: system.cpu.rename: [tid:0] Looking up integer arch reg 17, got phys reg 54 (integer)
  66000: system.cpu.rename: [tid:0] Register 54 (flat: 54) (integer) is not ready.
  66000: system.cpu.rename: [tid:0] Looking up miscellaneous arch reg 155, got phys reg 155 (miscellaneous)
  66000: system.cpu.rename: [tid:0] Register 155 (flat: 0) (miscellaneous) is ready.
  66000: global: [sn:22] has 2 ready out of 4 sources. RTI 0)
  66000: system.cpu.rename: [tid:0] Sending instructions to IEW.
  66000: system.cpu.rename: calcFreeLQEntries: free lqEntries: 132, loadsInProgress: 5, loads dispatchedToLQ: 0
  66000: system.cpu.rename: [tid:0] Processing instruction [sn:23] with PC (0x401026=>0x401028).(0=>1).
  66000: system.cpu.rename: [tid:0] Looking up invalid arch reg 0, got phys reg 4294967295 (invalid)
  66000: system.cpu.rename: [tid:0] Register 4294967295 (flat: 4294967295) (invalid) is ready.
  66000: global: [sn:23] has 1 ready out of 4 sources. RTI 0)
  66000: system.cpu.rename: [tid:0] Looking up integer arch reg 0, got phys reg 43 (integer)
  66000: system.cpu.rename: [tid:0] Register 43 (flat: 43) (integer) is not ready.
  66000: system.cpu.rename: [tid:0] Looking up integer arch reg 17, got phys reg 54 (integer)
  66000: system.cpu.rename: [tid:0] Register 54 (flat: 54) (integer) is not ready.
  66000: system.cpu.rename: [tid:0] Looking up miscellaneous arch reg 155, got phys reg 155 (miscellaneous)
  66000: system.cpu.rename: [tid:0] Register 155 (flat: 0) (miscellaneous) is ready.
  66000: global: [sn:23] has 2 ready out of 4 sources. RTI 0)
  66000: global: Renamed reg t1 to physical reg 55 (55) old mapping was 54 (54)
  66000: system.cpu.rename: [tid:0] Renaming arch reg 17 (integer) to physical reg 55 (55).
  66000: system.cpu.rename: [tid:0] [sn:23] Adding instruction to history buffer (size=53).
  66000: system.cpu.rename: [tid:0] Sending instructions to IEW.
  66000: system.cpu.rename: [tid:0] Processing instruction [sn:24] with PC (0x401026=>0x401028).(1=>2).
  66000: system.cpu.rename: [tid:0] Looking up integer arch reg 17, got phys reg 55 (integer)
  66000: system.cpu.rename: [tid:0] Register 55 (flat: 55) (integer) is not ready.
  66000: system.cpu.rename: [tid:0] Looking up integer arch reg 0, got phys reg 43 (integer)
  66000: system.cpu.rename: [tid:0] Register 43 (flat: 43) (integer) is not ready.
  66000: system.cpu.rename: [tid:0] Looking up integer arch reg 17, got phys reg 55 (integer)
  66000: system.cpu.rename: [tid:0] Register 55 (flat: 55) (integer) is not ready.
  66000: system.cpu.rename: [tid:0] Looking up invalid arch reg 0, got phys reg 4294967295 (invalid)
  66000: system.cpu.rename: [tid:0] Register 4294967295 (flat: 4294967295) (invalid) is ready.
  66000: global: [sn:24] has 1 ready out of 8 sources. RTI 0)
  66000: system.cpu.rename: [tid:0] Looking up invalid arch reg 0, got phys reg 4294967295 (invalid)
  66000: system.cpu.rename: [tid:0] Register 4294967295 (flat: 4294967295) (invalid) is ready.
  66000: global: [sn:24] has 2 ready out of 8 sources. RTI 0)
  66000: system.cpu.rename: [tid:0] Looking up invalid arch reg 0, got phys reg 4294967295 (invalid)
  66000: system.cpu.rename: [tid:0] Register 4294967295 (flat: 4294967295) (invalid) is ready.
  66000: global: [sn:24] has 3 ready out of 8 sources. RTI 0)
  66000: system.cpu.rename: [tid:0] Looking up invalid arch reg 0, got phys reg 4294967295 (invalid)
  66000: system.cpu.rename: [tid:0] Register 4294967295 (flat: 4294967295) (invalid) is ready.
  66000: global: [sn:24] has 4 ready out of 8 sources. RTI 0)
  66000: system.cpu.rename: [tid:0] Looking up invalid arch reg 0, got phys reg 4294967295 (invalid)
  66000: system.cpu.rename: [tid:0] Register 4294967295 (flat: 4294967295) (invalid) is ready.
  66000: global: [sn:24] has 5 ready out of 8 sources. RTI 0)
  66000: global: Renamed reg t1 to physical reg 56 (56) old mapping was 55 (55)
  66000: system.cpu.rename: [tid:0] Renaming arch reg 17 (integer) to physical reg 56 (56).
  66000: system.cpu.rename: [tid:0] [sn:24] Adding instruction to history buffer (size=54).
  66000: global: Renamed reg condition_code[0] to physical reg 4745 (4745) old mapping was 4743 (4743)
  66000: system.cpu.rename: [tid:0] Renaming arch reg 0 (condition_code) to physical reg 19 (4745).
  66000: system.cpu.rename: [tid:0] [sn:24] Adding instruction to history buffer (size=55).
  66000: global: Renamed reg condition_code[1] to physical reg 4746 (4746) old mapping was 4744 (4744)
  66000: system.cpu.rename: [tid:0] Renaming arch reg 1 (condition_code) to physical reg 20 (4746).
  66000: system.cpu.rename: [tid:0] [sn:24] Adding instruction to history buffer (size=56).
  66000: system.cpu.rename: [tid:0] Renaming arch reg 0 (invalid) to physical reg 4294967295 (4294967295).
  66000: system.cpu.rename: [tid:0] [sn:24] Adding instruction to history buffer (size=57).
  66000: system.cpu.rename: [tid:0] Renaming arch reg 0 (invalid) to physical reg 4294967295 (4294967295).
  66000: system.cpu.rename: [tid:0] [sn:24] Adding instruction to history buffer (size=58).
  66000: system.cpu.rename: [tid:0] Renaming arch reg 0 (invalid) to physical reg 4294967295 (4294967295).
  66000: system.cpu.rename: [tid:0] [sn:24] Adding instruction to history buffer (size=59).
  66000: system.cpu.rename: [tid:0] Sending instructions to IEW.
  66000: system.cpu.rename: calcFreeSQEntries: free sqEntries: 72, storesInProgress: 5, stores dispatchedToSQ: 0
  66000: system.cpu.rename: [tid:0] Processing instruction [sn:25] with PC (0x401026=>0x401028).(2=>3).
  66000: system.cpu.rename: [tid:0] Looking up invalid arch reg 0, got phys reg 4294967295 (invalid)
  66000: system.cpu.rename: [tid:0] Register 4294967295 (flat: 4294967295) (invalid) is ready.
  66000: global: [sn:25] has 1 ready out of 4 sources. RTI 0)
  66000: system.cpu.rename: [tid:0] Looking up integer arch reg 0, got phys reg 43 (integer)
  66000: system.cpu.rename: [tid:0] Register 43 (flat: 43) (integer) is not ready.
  66000: system.cpu.rename: [tid:0] Looking up integer arch reg 17, got phys reg 56 (integer)
  66000: system.cpu.rename: [tid:0] Register 56 (flat: 56) (integer) is not ready.
  66000: system.cpu.rename: [tid:0] Looking up miscellaneous arch reg 155, got phys reg 155 (miscellaneous)
  66000: system.cpu.rename: [tid:0] Register 155 (flat: 0) (miscellaneous) is ready.
  66000: global: [sn:25] has 2 ready out of 4 sources. RTI 0)
  66000: system.cpu.rename: [tid:0] Sending instructions to IEW.
  66000: system.cpu.rename: calcFreeLQEntries: free lqEntries: 132, loadsInProgress: 6, loads dispatchedToLQ: 0
  66000: system.cpu.rename: [tid:0] Processing instruction [sn:26] with PC (0x401028=>0x40102a).(0=>1).
  66000: system.cpu.rename: [tid:0] Looking up invalid arch reg 0, got phys reg 4294967295 (invalid)
  66000: system.cpu.rename: [tid:0] Register 4294967295 (flat: 4294967295) (invalid) is ready.
  66000: global: [sn:26] has 1 ready out of 4 sources. RTI 0)
  66000: system.cpu.rename: [tid:0] Looking up integer arch reg 0, got phys reg 43 (integer)
  66000: system.cpu.rename: [tid:0] Register 43 (flat: 43) (integer) is not ready.
  66000: system.cpu.rename: [tid:0] Looking up integer arch reg 17, got phys reg 56 (integer)
  66000: system.cpu.rename: [tid:0] Register 56 (flat: 56) (integer) is not ready.
  66000: system.cpu.rename: [tid:0] Looking up miscellaneous arch reg 155, got phys reg 155 (miscellaneous)
  66000: system.cpu.rename: [tid:0] Register 155 (flat: 0) (miscellaneous) is ready.
  66000: global: [sn:26] has 2 ready out of 4 sources. RTI 0)
  66000: global: Renamed reg t1 to physical reg 57 (57) old mapping was 56 (56)
  66000: system.cpu.rename: [tid:0] Renaming arch reg 17 (integer) to physical reg 57 (57).
  66000: system.cpu.rename: [tid:0] [sn:26] Adding instruction to history buffer (size=60).
  66000: system.cpu.rename: [tid:0] Sending instructions to IEW.
  66000: system.cpu.rename: [tid:0] Processing instruction [sn:27] with PC (0x401028=>0x40102a).(1=>2).
  66000: system.cpu.rename: [tid:0] Looking up integer arch reg 17, got phys reg 57 (integer)
  66000: system.cpu.rename: [tid:0] Register 57 (flat: 57) (integer) is not ready.
  66000: system.cpu.rename: [tid:0] Looking up integer arch reg 0, got phys reg 43 (integer)
  66000: system.cpu.rename: [tid:0] Register 43 (flat: 43) (integer) is not ready.
  66000: system.cpu.rename: [tid:0] Looking up integer arch reg 17, got phys reg 57 (integer)
  66000: system.cpu.rename: [tid:0] Register 57 (flat: 57) (integer) is not ready.
  66000: system.cpu.rename: [tid:0] Looking up invalid arch reg 0, got phys reg 4294967295 (invalid)
  66000: system.cpu.rename: [tid:0] Register 4294967295 (flat: 4294967295) (invalid) is ready.
  66000: global: [sn:27] has 1 ready out of 8 sources. RTI 0)
  66000: system.cpu.rename: [tid:0] Looking up invalid arch reg 0, got phys reg 4294967295 (invalid)
  66000: system.cpu.rename: [tid:0] Register 4294967295 (flat: 4294967295) (invalid) is ready.
  66000: global: [sn:27] has 2 ready out of 8 sources. RTI 0)
  66000: system.cpu.rename: [tid:0] Looking up invalid arch reg 0, got phys reg 4294967295 (invalid)
  66000: system.cpu.rename: [tid:0] Register 4294967295 (flat: 4294967295) (invalid) is ready.
  66000: global: [sn:27] has 3 ready out of 8 sources. RTI 0)
  66000: system.cpu.rename: [tid:0] Looking up invalid arch reg 0, got phys reg 4294967295 (invalid)
  66000: system.cpu.rename: [tid:0] Register 4294967295 (flat: 4294967295) (invalid) is ready.
  66000: global: [sn:27] has 4 ready out of 8 sources. RTI 0)
  66000: system.cpu.rename: [tid:0] Looking up invalid arch reg 0, got phys reg 4294967295 (invalid)
  66000: system.cpu.rename: [tid:0] Register 4294967295 (flat: 4294967295) (invalid) is ready.
  66000: global: [sn:27] has 5 ready out of 8 sources. RTI 0)
  66000: global: Renamed reg t1 to physical reg 58 (58) old mapping was 57 (57)
  66000: system.cpu.rename: [tid:0] Renaming arch reg 17 (integer) to physical reg 58 (58).
  66000: system.cpu.rename: [tid:0] [sn:27] Adding instruction to history buffer (size=61).
  66000: global: Renamed reg condition_code[0] to physical reg 4747 (4747) old mapping was 4745 (4745)
  66000: system.cpu.rename: [tid:0] Renaming arch reg 0 (condition_code) to physical reg 21 (4747).
  66000: system.cpu.rename: [tid:0] [sn:27] Adding instruction to history buffer (size=62).
  66000: global: Renamed reg condition_code[1] to physical reg 4748 (4748) old mapping was 4746 (4746)
  66000: system.cpu.rename: [tid:0] Renaming arch reg 1 (condition_code) to physical reg 22 (4748).
  66000: system.cpu.rename: [tid:0] [sn:27] Adding instruction to history buffer (size=63).
  66000: system.cpu.rename: [tid:0] Renaming arch reg 0 (invalid) to physical reg 4294967295 (4294967295).
  66000: system.cpu.rename: [tid:0] [sn:27] Adding instruction to history buffer (size=64).
  66000: system.cpu.rename: [tid:0] Renaming arch reg 0 (invalid) to physical reg 4294967295 (4294967295).
  66000: system.cpu.rename: [tid:0] [sn:27] Adding instruction to history buffer (size=65).
  66000: system.cpu.rename: [tid:0] Renaming arch reg 0 (invalid) to physical reg 4294967295 (4294967295).
  66000: system.cpu.rename: [tid:0] [sn:27] Adding instruction to history buffer (size=66).
  66000: system.cpu.rename: [tid:0] Sending instructions to IEW.
  66000: system.cpu.rename: calcFreeSQEntries: free sqEntries: 72, storesInProgress: 6, stores dispatchedToSQ: 0
  66000: system.cpu.rename: [tid:0] Processing instruction [sn:28] with PC (0x401028=>0x40102a).(2=>3).
  66000: system.cpu.rename: [tid:0] Looking up invalid arch reg 0, got phys reg 4294967295 (invalid)
  66000: system.cpu.rename: [tid:0] Register 4294967295 (flat: 4294967295) (invalid) is ready.
  66000: global: [sn:28] has 1 ready out of 4 sources. RTI 0)
  66000: system.cpu.rename: [tid:0] Looking up integer arch reg 0, got phys reg 43 (integer)
  66000: system.cpu.rename: [tid:0] Register 43 (flat: 43) (integer) is not ready.
  66000: system.cpu.rename: [tid:0] Looking up integer arch reg 17, got phys reg 58 (integer)
  66000: system.cpu.rename: [tid:0] Register 58 (flat: 58) (integer) is not ready.
  66000: system.cpu.rename: [tid:0] Looking up miscellaneous arch reg 155, got phys reg 155 (miscellaneous)
  66000: system.cpu.rename: [tid:0] Register 155 (flat: 0) (miscellaneous) is ready.
  66000: global: [sn:28] has 2 ready out of 4 sources. RTI 0)
  66000: system.cpu.rename: [tid:0] Sending instructions to IEW.
  66000: system.cpu.rename: calcFreeLQEntries: free lqEntries: 132, loadsInProgress: 7, loads dispatchedToLQ: 0
  66000: system.cpu.rename: [tid:0] Processing instruction [sn:29] with PC (0x40102a=>0x40102c).(0=>1).
  66000: system.cpu.rename: [tid:0] Looking up invalid arch reg 0, got phys reg 4294967295 (invalid)
  66000: system.cpu.rename: [tid:0] Register 4294967295 (flat: 4294967295) (invalid) is ready.
  66000: global: [sn:29] has 1 ready out of 4 sources. RTI 0)
  66000: system.cpu.rename: [tid:0] Looking up integer arch reg 0, got phys reg 43 (integer)
  66000: system.cpu.rename: [tid:0] Register 43 (flat: 43) (integer) is not ready.
  66000: system.cpu.rename: [tid:0] Looking up integer arch reg 17, got phys reg 58 (integer)
  66000: system.cpu.rename: [tid:0] Register 58 (flat: 58) (integer) is not ready.
  66000: system.cpu.rename: [tid:0] Looking up miscellaneous arch reg 155, got phys reg 155 (miscellaneous)
  66000: system.cpu.rename: [tid:0] Register 155 (flat: 0) (miscellaneous) is ready.
  66000: global: [sn:29] has 2 ready out of 4 sources. RTI 0)
  66000: global: Renamed reg t1 to physical reg 59 (59) old mapping was 58 (58)
  66000: system.cpu.rename: [tid:0] Renaming arch reg 17 (integer) to physical reg 59 (59).
  66000: system.cpu.rename: [tid:0] [sn:29] Adding instruction to history buffer (size=67).
  66000: system.cpu.rename: [tid:0] Sending instructions to IEW.
  66000: system.cpu.rename: [tid:0] Processing instruction [sn:30] with PC (0x40102a=>0x40102c).(1=>2).
  66000: system.cpu.rename: [tid:0] Looking up integer arch reg 17, got phys reg 59 (integer)
  66000: system.cpu.rename: [tid:0] Register 59 (flat: 59) (integer) is not ready.
  66000: system.cpu.rename: [tid:0] Looking up integer arch reg 0, got phys reg 43 (integer)
  66000: system.cpu.rename: [tid:0] Register 43 (flat: 43) (integer) is not ready.
  66000: system.cpu.rename: [tid:0] Looking up integer arch reg 17, got phys reg 59 (integer)
  66000: system.cpu.rename: [tid:0] Register 59 (flat: 59) (integer) is not ready.
  66000: system.cpu.rename: [tid:0] Looking up invalid arch reg 0, got phys reg 4294967295 (invalid)
  66000: system.cpu.rename: [tid:0] Register 4294967295 (flat: 4294967295) (invalid) is ready.
  66000: global: [sn:30] has 1 ready out of 8 sources. RTI 0)
  66000: system.cpu.rename: [tid:0] Looking up invalid arch reg 0, got phys reg 4294967295 (invalid)
  66000: system.cpu.rename: [tid:0] Register 4294967295 (flat: 4294967295) (invalid) is ready.
  66000: global: [sn:30] has 2 ready out of 8 sources. RTI 0)
  66000: system.cpu.rename: [tid:0] Looking up invalid arch reg 0, got phys reg 4294967295 (invalid)
  66000: system.cpu.rename: [tid:0] Register 4294967295 (flat: 4294967295) (invalid) is ready.
  66000: global: [sn:30] has 3 ready out of 8 sources. RTI 0)
  66000: system.cpu.rename: [tid:0] Looking up invalid arch reg 0, got phys reg 4294967295 (invalid)
  66000: system.cpu.rename: [tid:0] Register 4294967295 (flat: 4294967295) (invalid) is ready.
  66000: global: [sn:30] has 4 ready out of 8 sources. RTI 0)
  66000: system.cpu.rename: [tid:0] Looking up invalid arch reg 0, got phys reg 4294967295 (invalid)
  66000: system.cpu.rename: [tid:0] Register 4294967295 (flat: 4294967295) (invalid) is ready.
  66000: global: [sn:30] has 5 ready out of 8 sources. RTI 0)
  66000: global: Renamed reg t1 to physical reg 60 (60) old mapping was 59 (59)
  66000: system.cpu.rename: [tid:0] Renaming arch reg 17 (integer) to physical reg 60 (60).
  66000: system.cpu.rename: [tid:0] [sn:30] Adding instruction to history buffer (size=68).
[...]
 136000: system.cpu.iq: Instruction PC (0x401072=>0x401074).(1=>2) has src reg 131 (integer) that is being added to the dependency chain.
 136000: system.cpu.iew: [tid:0] Issue: Adding PC (0x401072=>0x401074).(2=>3) [sn:139] [tid:0] to IQ.
 136000: system.cpu.iew: [tid:0] Issue: Memory instruction encountered, adding to LSQ.
 136000: system.cpu.iew.lsq.thread0: Inserting store PC (0x401072=>0x401074).(2=>3), idx:43 [sn:139]
 136000: system.cpu.iq: Adding instruction [sn:139] PC (0x401072=>0x401074).(2=>3) to the IQ.
 136000: system.cpu.iq: Instruction PC (0x401072=>0x401074).(2=>3) has src reg 132 (integer) that is being added to the dependency chain.
 136000: system.cpu.iew: [tid:0] Issue: Adding PC (0x401074=>0x401076).(0=>1) [sn:140] [tid:0] to IQ.
 136000: system.cpu.iew: [tid:0] Issue: Load instruction encountered, adding to LSQ.
 136000: system.cpu.iew.lsq.thread0: Inserting load PC (0x401074=>0x401076).(0=>1), idx:43 [sn:140]
 136000: system.cpu.iq: Adding instruction [sn:140] PC (0x401074=>0x401076).(0=>1) to the IQ.
 136000: system.cpu.iq: Instruction PC (0x401074=>0x401076).(0=>1) has src reg 132 (integer) that is being added to the dependency chain.
 136000: system.cpu.iew: [tid:0] Issue: Adding PC (0x401074=>0x401076).(1=>2) [sn:141] [tid:0] to IQ.
 136000: system.cpu.iq: Adding instruction [sn:141] PC (0x401074=>0x401076).(1=>2) to the IQ.
 136000: system.cpu.iq: Instruction PC (0x401074=>0x401076).(1=>2) has src reg 133 (integer) that is being added to the dependency chain.
 136000: system.cpu.iq: Instruction PC (0x401074=>0x401076).(1=>2) has src reg 133 (integer) that is being added to the dependency chain.
 136000: system.cpu.iq: Attempting to schedule ready instructions from the IQ.
 136000: system.cpu.iq: Not able to schedule any instructions.
 136000: system.cpu.iew: Processing [tid:0]
 136000: system.cpu.iew.lsq.thread0: LQ size: 132, #loads occupied: 44
 136000: system.cpu.iew.lsq.thread0: SQ size: 72, #stores occupied: 43
 136000: system.cpu.iew: [tid:0], Dispatch dispatched 10 instructions.
 136000: system.cpu.iew.lsq.thread0: SQ size: 72, #stores occupied: 43
 136000: system.cpu.iew.lsq.thread0: LQ size: 132, #loads occupied: 44
 136000: system.cpu.iew: IQ has 428 free entries (Can schedule: 0).  LQ has 88 free entries. SQ has 29 free entries.
 136000: system.cpu.commit: Getting instructions from Rename stage.
 136000: system.cpu.commit: [tid:0] [sn:142] Inserting PC (0x401074=>0x401076).(2=>3) into ROB.
 136000: system.cpu.commit: [tid:0] [sn:143] Inserting PC (0x401076=>0x401078).(0=>1) into ROB.
 136000: system.cpu.commit: [tid:0] [sn:144] Inserting PC (0x401076=>0x401078).(1=>2) into ROB.
 136000: system.cpu.commit: [tid:0] [sn:145] Inserting PC (0x401076=>0x401078).(2=>3) into ROB.
 136000: system.cpu.commit: [tid:0] [sn:146] Inserting PC (0x401078=>0x40107a).(0=>1) into ROB.
 136000: system.cpu.commit: [tid:0] [sn:147] Inserting PC (0x401078=>0x40107a).(1=>2) into ROB.
 136000: system.cpu.commit: [tid:0] [sn:148] Inserting PC (0x401078=>0x40107a).(2=>3) into ROB.
 136000: system.cpu.commit: [tid:0] [sn:149] Inserting PC (0x40107a=>0x40107c).(0=>1) into ROB.
 136000: system.cpu.commit: [tid:0] [sn:150] Inserting PC (0x40107a=>0x40107c).(1=>2) into ROB.
 136000: system.cpu.commit: [tid:0] [sn:151] Inserting PC (0x40107a=>0x40107c).(2=>3) into ROB.
 136000: system.cpu.commit: Trying to commit instructions in the ROB.
 136000: system.cpu.commit: [tid:0] Marking PC (0x40100b=>0x40100e).(0=>1), [sn:5] ready within ROB.
 136000: system.cpu.commit: [tid:0] Instruction [sn:5] PC (0x40100b=>0x40100e).(0=>1) is head of ROB and ready to commit
 136000: system.cpu.commit: [tid:0] ROB has 147 insts & 771 free entries.
 136500: system.cpu.rename: Processing [tid:0]
 136500: system.cpu.rename: [tid:0] Free IQ: 428, Free ROB: 771, Free LQ: 88, Free SQ: 29, FreeRM 127(776 870 917 1834 127 8 4483)
 136500: system.cpu.rename: [tid:0] 26 instructions not yet in ROB
 136500: system.cpu.rename: calcFreeLQEntries: free lqEntries: 88, loadsInProgress: 9, loads dispatchedToLQ: 3
 136500: system.cpu.rename: [tid:0] Not blocked, so attempting to run stage.
 136500: system.cpu.rename: [tid:0] Nothing to do, breaking out early.
 136500: system.cpu.iew: Issue: Processing [tid:0]
 136500: system.cpu.iew: [tid:0] Not blocked, so attempting to run dispatch.
 136500: system.cpu.iew: [tid:0] Issue: Adding PC (0x401074=>0x401076).(2=>3) [sn:142] [tid:0] to IQ.
 136500: system.cpu.iew: [tid:0] Issue: Memory instruction encountered, adding to LSQ.
 136500: system.cpu.iew.lsq.thread0: Inserting store PC (0x401074=>0x401076).(2=>3), idx:44 [sn:142]
 136500: system.cpu.iq: Adding instruction [sn:142] PC (0x401074=>0x401076).(2=>3) to the IQ.
 136500: system.cpu.iq: Instruction PC (0x401074=>0x401076).(2=>3) has src reg 134 (integer) that is being added to the dependency chain.
 136500: system.cpu.iew: [tid:0] Issue: Adding PC (0x401076=>0x401078).(0=>1) [sn:143] [tid:0] to IQ.
 136500: system.cpu.iew: [tid:0] Issue: Load instruction encountered, adding to LSQ.
 136500: system.cpu.iew.lsq.thread0: Inserting load PC (0x401076=>0x401078).(0=>1), idx:44 [sn:143]
 136500: system.cpu.iq: Adding instruction [sn:143] PC (0x401076=>0x401078).(0=>1) to the IQ.
 136500: system.cpu.iq: Instruction PC (0x401076=>0x401078).(0=>1) has src reg 134 (integer) that is being added to the dependency chain.
 136500: system.cpu.iew: [tid:0] Issue: Adding PC (0x401076=>0x401078).(1=>2) [sn:144] [tid:0] to IQ.
 136500: system.cpu.iq: Adding instruction [sn:144] PC (0x401076=>0x401078).(1=>2) to the IQ.
 136500: system.cpu.iq: Instruction PC (0x401076=>0x401078).(1=>2) has src reg 135 (integer) that is being added to the dependency chain.
 136500: system.cpu.iq: Instruction PC (0x401076=>0x401078).(1=>2) has src reg 135 (integer) that is being added to the dependency chain.
 136500: system.cpu.iew: [tid:0] Issue: Adding PC (0x401076=>0x401078).(2=>3) [sn:145] [tid:0] to IQ.
 136500: system.cpu.iew: [tid:0] Issue: Memory instruction encountered, adding to LSQ.
 136500: system.cpu.iew.lsq.thread0: Inserting store PC (0x401076=>0x401078).(2=>3), idx:45 [sn:145]
 136500: system.cpu.iq: Adding instruction [sn:145] PC (0x401076=>0x401078).(2=>3) to the IQ.
 136500: system.cpu.iq: Instruction PC (0x401076=>0x401078).(2=>3) has src reg 136 (integer) that is being added to the dependency chain.
 136500: system.cpu.iew: [tid:0] Issue: Adding PC (0x401078=>0x40107a).(0=>1) [sn:146] [tid:0] to IQ.
 136500: system.cpu.iew: [tid:0] Issue: Load instruction encountered, adding to LSQ.
 136500: system.cpu.iew.lsq.thread0: Inserting load PC (0x401078=>0x40107a).(0=>1), idx:45 [sn:146]
 136500: system.cpu.iq: Adding instruction [sn:146] PC (0x401078=>0x40107a).(0=>1) to the IQ.
 136500: system.cpu.iq: Instruction PC (0x401078=>0x40107a).(0=>1) has src reg 136 (integer) that is being added to the dependency chain.
 136500: system.cpu.iew: [tid:0] Issue: Adding PC (0x401078=>0x40107a).(1=>2) [sn:147] [tid:0] to IQ.
 136500: system.cpu.iq: Adding instruction [sn:147] PC (0x401078=>0x40107a).(1=>2) to the IQ.
 136500: system.cpu.iq: Instruction PC (0x401078=>0x40107a).(1=>2) has src reg 137 (integer) that is being added to the dependency chain.
 136500: system.cpu.iq: Instruction PC (0x401078=>0x40107a).(1=>2) has src reg 137 (integer) that is being added to the dependency chain.
 136500: system.cpu.iew: [tid:0] Issue: Adding PC (0x401078=>0x40107a).(2=>3) [sn:148] [tid:0] to IQ.
 136500: system.cpu.iew: [tid:0] Issue: Memory instruction encountered, adding to LSQ.
 136500: system.cpu.iew.lsq.thread0: Inserting store PC (0x401078=>0x40107a).(2=>3), idx:46 [sn:148]
 136500: system.cpu.iq: Adding instruction [sn:148] PC (0x401078=>0x40107a).(2=>3) to the IQ.
 136500: system.cpu.iq: Instruction PC (0x401078=>0x40107a).(2=>3) has src reg 138 (integer) that is being added to the dependency chain.
 136500: system.cpu.iew: [tid:0] Issue: Adding PC (0x40107a=>0x40107c).(0=>1) [sn:149] [tid:0] to IQ.
 136500: system.cpu.iew: [tid:0] Issue: Load instruction encountered, adding to LSQ.
 136500: system.cpu.iew.lsq.thread0: Inserting load PC (0x40107a=>0x40107c).(0=>1), idx:46 [sn:149]
 136500: system.cpu.iq: Adding instruction [sn:149] PC (0x40107a=>0x40107c).(0=>1) to the IQ.
 136500: system.cpu.iq: Instruction PC (0x40107a=>0x40107c).(0=>1) has src reg 138 (integer) that is being added to the dependency chain.
 136500: system.cpu.iew: [tid:0] Issue: Adding PC (0x40107a=>0x40107c).(1=>2) [sn:150] [tid:0] to IQ.
 136500: system.cpu.iq: Adding instruction [sn:150] PC (0x40107a=>0x40107c).(1=>2) to the IQ.
 136500: system.cpu.iq: Instruction PC (0x40107a=>0x40107c).(1=>2) has src reg 139 (integer) that is being added to the dependency chain.
 136500: system.cpu.iq: Instruction PC (0x40107a=>0x40107c).(1=>2) has src reg 139 (integer) that is being added to the dependency chain.
 136500: system.cpu.iew: [tid:0] Issue: Adding PC (0x40107a=>0x40107c).(2=>3) [sn:151] [tid:0] to IQ.
 136500: system.cpu.iew: [tid:0] Issue: Memory instruction encountered, adding to LSQ.
 136500: system.cpu.iew.lsq.thread0: Inserting store PC (0x40107a=>0x40107c).(2=>3), idx:47 [sn:151]
 136500: system.cpu.iq: Adding instruction [sn:151] PC (0x40107a=>0x40107c).(2=>3) to the IQ.
 136500: system.cpu.iq: Instruction PC (0x40107a=>0x40107c).(2=>3) has src reg 140 (integer) that is being added to the dependency chain.
 136500: system.cpu.iq: Attempting to schedule ready instructions from the IQ.
 136500: system.cpu.iq: Not able to schedule any instructions.
 136500: system.cpu.iew: Processing [tid:0]
 136500: system.cpu.iew: [tid:0], Dispatch dispatched 10 instructions.
 136500: system.cpu.iew.lsq.thread0: SQ size: 72, #stores occupied: 47
 136500: system.cpu.iew.lsq.thread0: LQ size: 132, #loads occupied: 47
 136500: system.cpu.iew: IQ has 418 free entries (Can schedule: 0).  LQ has 85 free entries. SQ has 25 free entries.
 136500: system.cpu.commit: Getting instructions from Rename stage.
 136500: system.cpu.commit: [tid:0] [sn:152] Inserting PC (0x40107c=>0x40107e).(0=>1) into ROB.
 136500: system.cpu.commit: [tid:0] [sn:153] Inserting PC (0x40107c=>0x40107e).(1=>2) into ROB.
 136500: system.cpu.commit: [tid:0] [sn:154] Inserting PC (0x40107c=>0x40107e).(2=>3) into ROB.
 136500: system.cpu.commit: [tid:0] [sn:155] Inserting PC (0x40107e=>0x401080).(0=>1) into ROB.
 136500: system.cpu.commit: [tid:0] [sn:156] Inserting PC (0x40107e=>0x401080).(1=>2) into ROB.
 136500: system.cpu.commit: [tid:0] [sn:157] Inserting PC (0x40107e=>0x401080).(2=>3) into ROB.
 136500: system.cpu.commit: Trying to commit instructions in the ROB.
 136500: system.cpu.commit: Trying to commit head instruction, [tid:0] [sn:5]
 136500: system.cpu.commit: [tid:0] [sn:5] Committing instruction with PC (0x40100b=>0x40100e).(0=>1)
  64000: system.cpu: T0 : 0x40100b @_start+11    : mov	rbx, SS:[t0 + rsp]    
  64000: system.cpu: T0 : 0x40100b @_start+11. 0 :   MOV_R_M : ld   ebx, SS:[t0 + rsp] : MemRead :  D=0x0000000000000000 A=0x7fffffffee5c
 136500: system.cpu.commit: Trying to commit head instruction, [tid:0] [sn:6]
 136500: system.cpu.commit: [tid:0] [sn:6] Committing instruction with PC (0x40100e=>0x401015).(0=>1)
  64000: system.cpu: T0 : 0x40100e @_start+14    : mov	rdi, 0x3c             
  64000: system.cpu: T0 : 0x40100e @_start+14. 0 :   MOV_R_I : limm   rax, 0x3c : IntAlu :  D=0x000000000000003c
 136500: system.cpu.commit: Trying to commit head instruction, [tid:0] [sn:7]
 136500: system.cpu.commit: [tid:0] [sn:7] Committing instruction with PC (0x401015=>0x401018).(0=>1)
  64000: system.cpu: T0 : 0x401015 @_start+21    : xor	rdi                   
  64000: system.cpu: T0 : 0x401015 @_start+21. 0 :   XOR_R_R : xor   rdi, rdi, rdi : IntAlu :  D=0x0000000000000000
 136500: system.cpu.commit: Trying to commit head instruction, [tid:0] [sn:8]
 136500: system.cpu.commit: [tid:0] [sn:8] Committing instruction with PC (0x401018=>0x40101c).(0=>1)
  64000: system.cpu: T0 : 0x401018 @_start+24    : add	rsp, 0x4              
  64000: system.cpu: T0 : 0x401018 @_start+24. 0 :   ADD_R_I : limm   t1, 0x4 : IntAlu :  D=0x0000000000000004
 136500: system.cpu.commit: Trying to commit head instruction, [tid:0] [sn:9]
 136500: system.cpu.commit: [tid:0] [sn:9] Committing instruction with PC (0x401018=>0x40101c).(1=>2)
  64000: system.cpu: T0 : 0x401018 @_start+24. 1 :   ADD_R_I : add   rsp, rsp, t1 : IntAlu :  D=0x0000000000000000
 136500: system.cpu.commit: Trying to commit head instruction, [tid:0] [sn:10]
 136500: system.cpu.commit: Inst [tid:0] [sn:10] PC (0x40101c=>0x40101e).(0=>1) has a fault
 136500: system.cpu.commit: [tid:0] [sn:10] Stores outstanding, fault must wait.
 136500: system.cpu.commit: Unable to commit head instruction PC:(0x40101c=>0x40101e).(0=>1) [tid:0] [sn:10].
 136500: system.cpu.commit: [tid:0] Instruction [sn:10] PC (0x40101c=>0x40101e).(0=>1) is head of ROB and ready to commit
 136500: system.cpu.commit: [tid:0] ROB has 148 insts & 770 free entries.
 137000: system.cpu.rename: Processing [tid:0]
 137000: system.cpu.rename: [tid:0] Free IQ: 428, Free ROB: 770, Free LQ: 88, Free SQ: 29, FreeRM 127(776 870 917 1834 127 8 4483)
 137000: system.cpu.rename: [tid:0] 16 instructions not yet in ROB
 137000: system.cpu.rename: calcFreeLQEntries: free lqEntries: 88, loadsInProgress: 6, loads dispatchedToLQ: 3
 137000: system.cpu.rename: [tid:0] Not blocked, so attempting to run stage.
 137000: system.cpu.rename: [tid:0] Nothing to do, breaking out early.
 137000: system.cpu.rename: [tid:0] Removing a committed instruction from the history buffer 0 (size=359), until [sn:9].
 137000: system.cpu.rename: [tid:0] Freeing up older rename of reg 3 (integer), [sn:5].
 137000: system.cpu.rename: [tid:0] Freeing up older rename of reg 42 (integer), [sn:5].
 137000: system.cpu.rename: [tid:0] Freeing up older rename of reg 0 (integer), [sn:6].
 137000: system.cpu.rename: [tid:0] Freeing up older rename of reg 7 (integer), [sn:7].
 137000: system.cpu.rename: [tid:0] Freeing up older rename of reg 5 (condition_code), [sn:7].
 137000: system.cpu.rename: [tid:0] Freeing up older rename of reg 6 (condition_code), [sn:7].
 137000: system.cpu.rename: [tid:0] Freeing up older rename of reg 4294967295 (invalid), [sn:7].
 137000: system.cpu.rename: [tid:0] Freeing up older rename of reg 4294967295 (invalid), [sn:7].
 137000: system.cpu.rename: [tid:0] Freeing up older rename of reg 4294967295 (invalid), [sn:7].
 137000: system.cpu.rename: [tid:0] Freeing up older rename of reg 41 (integer), [sn:8].
 137000: system.cpu.rename: [tid:0] Freeing up older rename of reg 40 (integer), [sn:9].
 137000: system.cpu.rename: [tid:0] Freeing up older rename of reg 7 (condition_code), [sn:9].
 137000: system.cpu.rename: [tid:0] Freeing up older rename of reg 8 (condition_code), [sn:9].
 137000: system.cpu.rename: [tid:0] Freeing up older rename of reg 4294967295 (invalid), [sn:9].
 137000: system.cpu.rename: [tid:0] Freeing up older rename of reg 4294967295 (invalid), [sn:9].
 137000: system.cpu.rename: [tid:0] Freeing up older rename of reg 4294967295 (invalid), [sn:9].
 137000: system.cpu.iew: Issue: Processing [tid:0]
 137000: system.cpu.iew: [tid:0] Not blocked, so attempting to run dispatch.
 137000: system.cpu.iew: [tid:0] Issue: Adding PC (0x40107c=>0x40107e).(0=>1) [sn:152] [tid:0] to IQ.
 137000: system.cpu.iew: [tid:0] Issue: Load instruction encountered, adding to LSQ.
 137000: system.cpu.iew.lsq.thread0: Inserting load PC (0x40107c=>0x40107e).(0=>1), idx:47 [sn:152]
 137000: system.cpu.iq: Adding instruction [sn:152] PC (0x40107c=>0x40107e).(0=>1) to the IQ.
 137000: system.cpu.iq: Instruction PC (0x40107c=>0x40107e).(0=>1) has src reg 140 (integer) that is being added to the dependency chain.
 137000: system.cpu.iew: [tid:0] Issue: Adding PC (0x40107c=>0x40107e).(1=>2) [sn:153] [tid:0] to IQ.
 137000: system.cpu.iq: Adding instruction [sn:153] PC (0x40107c=>0x40107e).(1=>2) to the IQ.
 137000: system.cpu.iq: Instruction PC (0x40107c=>0x40107e).(1=>2) has src reg 141 (integer) that is being added to the dependency chain.
 137000: system.cpu.iq: Instruction PC (0x40107c=>0x40107e).(1=>2) has src reg 141 (integer) that is being added to the dependency chain.
 137000: system.cpu.iew: [tid:0] Issue: Adding PC (0x40107c=>0x40107e).(2=>3) [sn:154] [tid:0] to IQ.
 137000: system.cpu.iew: [tid:0] Issue: Memory instruction encountered, adding to LSQ.
 137000: system.cpu.iew.lsq.thread0: Inserting store PC (0x40107c=>0x40107e).(2=>3), idx:48 [sn:154]
 137000: system.cpu.iq: Adding instruction [sn:154] PC (0x40107c=>0x40107e).(2=>3) to the IQ.
 137000: system.cpu.iq: Instruction PC (0x40107c=>0x40107e).(2=>3) has src reg 142 (integer) that is being added to the dependency chain.
 137000: system.cpu.iew: [tid:0] Issue: Adding PC (0x40107e=>0x401080).(0=>1) [sn:155] [tid:0] to IQ.
 137000: system.cpu.iew: [tid:0] Issue: Load instruction encountered, adding to LSQ.
 137000: system.cpu.iew.lsq.thread0: Inserting load PC (0x40107e=>0x401080).(0=>1), idx:48 [sn:155]
 137000: system.cpu.iq: Adding instruction [sn:155] PC (0x40107e=>0x401080).(0=>1) to the IQ.
 137000: system.cpu.iq: Instruction PC (0x40107e=>0x401080).(0=>1) has src reg 142 (integer) that is being added to the dependency chain.
 137000: system.cpu.iew: [tid:0] Issue: Adding PC (0x40107e=>0x401080).(1=>2) [sn:156] [tid:0] to IQ.
 137000: system.cpu.iq: Adding instruction [sn:156] PC (0x40107e=>0x401080).(1=>2) to the IQ.
 137000: system.cpu.iq: Instruction PC (0x40107e=>0x401080).(1=>2) has src reg 143 (integer) that is being added to the dependency chain.
 137000: system.cpu.iq: Instruction PC (0x40107e=>0x401080).(1=>2) has src reg 143 (integer) that is being added to the dependency chain.
 137000: system.cpu.iew: [tid:0] Issue: Adding PC (0x40107e=>0x401080).(2=>3) [sn:157] [tid:0] to IQ.
 137000: system.cpu.iew: [tid:0] Issue: Memory instruction encountered, adding to LSQ.
 137000: system.cpu.iew.lsq.thread0: Inserting store PC (0x40107e=>0x401080).(2=>3), idx:49 [sn:157]
 137000: system.cpu.iq: Adding instruction [sn:157] PC (0x40107e=>0x401080).(2=>3) to the IQ.
 137000: system.cpu.iq: Instruction PC (0x40107e=>0x401080).(2=>3) has src reg 144 (integer) that is being added to the dependency chain.
 137000: system.cpu.iq: Attempting to schedule ready instructions from the IQ.
 137000: system.cpu.iq: Not able to schedule any instructions.
 137000: system.cpu.iew: Processing [tid:0]
 137000: system.cpu.iq: [tid:0] Committing instructions older than [sn:9]
 137000: system.cpu.iew: [tid:0], Dispatch dispatched 6 instructions.
 137000: system.cpu.iew.lsq.thread0: SQ size: 72, #stores occupied: 49
 137000: system.cpu.iew.lsq.thread0: LQ size: 132, #loads occupied: 49
 137000: system.cpu.iew: IQ has 412 free entries (Can schedule: 0).  LQ has 83 free entries. SQ has 23 free entries.
 137000: system.cpu.commit: Getting instructions from Rename stage.
 137000: system.cpu.commit: Trying to commit instructions in the ROB.
 137000: system.cpu.commit: Trying to commit head instruction, [tid:0] [sn:10]
 137000: system.cpu.commit: Inst [tid:0] [sn:10] PC (0x40101c=>0x40101e).(0=>1) has a fault
 137000: global: RegFile: Access to int register 43, has data 0x3c
 137000: global: RegFile: Access to int register 44, has data 0
 137000: global: RegFile: Setting int register 43 to 0
 137000: system.cpu.commit: [tid:0] [sn:10] Committing instruction with fault
  64000: system.cpu: T0 : 0x40101c @_start+28    :   syscall                  : IntAlu : 
 137000: system.cpu.commit: Generating trap event for [tid:0]
 137000: system.cpu.commit: Unable to commit head instruction PC:(0x40101c=>0x40101e).(0=>1) [tid:0] [sn:10].
 137000: system.cpu.commit: [tid:0] Instruction [sn:10] PC (0x40101c=>0x40101e).(0=>1) is head of ROB and ready to commit
 137000: system.cpu.commit: [tid:0] ROB has 148 insts & 770 free entries.
Exiting @ tick 137000 because exiting with last active thread context
